@<TRIPOS>MOLECULE
tip3p_30x30.pdb
 20244 13496 0 0 0
SMALL
GASTEIGER

@<TRIPOS>ATOM
      1  O         29.0500   29.0060   28.5080 O.3     2  WAT2       -0.4105
      2  H1        28.2740   28.5260   28.7980 H       2  WAT2        0.2052
      3  H2        29.7010   28.3260   28.3330 H       2  WAT2        0.2052
      4  O         21.4760   24.2780   23.1700 O.3     3  WAT3       -0.4105
      5  H1        20.5870   24.6190   23.0680 H       3  WAT3        0.2052
      6  H2        21.7600   24.0780   22.2780 H       3  WAT3        0.2052
      7  O         19.4390   26.8780   29.0540 O.3     4  WAT4       -0.4105
      8  H1        20.0110   26.1110   29.0540 H       4  WAT4        0.2052
      9  H2        19.4390   27.1770   28.1440 H       4  WAT4        0.2052
     10  O         29.5210   24.4880   28.7420 O.3     5  WAT5       -0.4105
     11  H1        29.8980   23.6150   28.6290 H       5  WAT5        0.2052
     12  H2        29.4230   24.8240   27.8510 H       5  WAT5        0.2052
     13  O         23.6520   22.8610   24.2030 O.3     6  WAT6       -0.4105
     14  H1        23.7580   23.7610   24.5100 H       6  WAT6        0.2052
     15  H2        22.7410   22.8130   23.9130 H       6  WAT6        0.2052
     16  O         21.3000   24.7830   29.4490 O.3     7  WAT7       -0.4105
     17  H1        21.9810   25.0470   30.0670 H       7  WAT7        0.2052
     18  H2        20.9850   23.9430   29.7820 H       7  WAT7        0.2052
     19  O         25.4930   25.8300   28.5360 O.3     8  WAT8       -0.4105
     20  H1        26.0000   26.3280   29.1760 H       8  WAT8        0.2052
     21  H2        26.0240   25.0530   28.3600 H       8  WAT8        0.2052
     22  O         27.1400   19.6690   27.1340 O.3     9  WAT9       -0.4105
     23  H1        27.4480   19.1130   26.4170 H       9  WAT9        0.2052
     24  H2        26.2110   19.8030   26.9510 H       9  WAT9        0.2052
     25  O         29.5290   27.7330   23.8700 O.3    10  WAT10      -0.4105
     26  H1        28.6010   27.6670   24.0990 H      10  WAT10       0.2052
     27  H2        29.6810   28.6710   23.7550 H      10  WAT10       0.2052
     28  O         29.5150   24.0050   20.8660 O.3    11  WAT11      -0.4105
     29  H1        28.5760   24.1670   20.9520 H      11  WAT11       0.2052
     30  H2        29.8340   24.7240   20.3200 H      11  WAT11       0.2052
     31  O         25.1340   28.2600   26.6520 O.3    12  WAT12      -0.4105
     32  H1        24.7300   27.5480   26.1560 H      12  WAT12       0.2052
     33  H2        25.2210   27.9150   27.5410 H      12  WAT12       0.2052
     34  O         21.8350   27.1540   24.1520 O.3    13  WAT13      -0.4105
     35  H1        21.7140   27.8810   23.5410 H      13  WAT13       0.2052
     36  H2        21.5250   26.3850   23.6750 H      13  WAT13       0.2052
     37  O         24.3010   20.4980   27.5350 O.3    14  WAT14      -0.4105
     38  H1        23.8580   21.2790   27.2030 H      14  WAT14       0.2052
     39  H2        24.8600   20.8210   28.2420 H      14  WAT14       0.2052
     40  O         27.4170   20.1190   22.4150 O.3    15  WAT15      -0.4105
     41  H1        26.7920   20.1150   23.1410 H      15  WAT15       0.2052
     42  H2        27.3300   19.2520   22.0190 H      15  WAT15       0.2052
     43  O         26.3390   21.0430   29.3940 O.3    16  WAT16      -0.4105
     44  H1        26.6360   21.9490   29.3130 H      16  WAT16       0.2052
     45  H2        26.8870   20.5550   28.7800 H      16  WAT16       0.2052
     46  O         24.0920   25.6210   25.2630 O.3    17  WAT17      -0.4105
     47  H1        23.8670   25.4050   26.1680 H      17  WAT17       0.2052
     48  H2        23.3120   26.0540   24.9170 H      17  WAT17       0.2052
     49  O         18.9650   20.8540   28.1150 O.3    18  WAT18      -0.4105
     50  H1        18.6760   21.4240   28.8280 H      18  WAT18       0.2052
     51  H2        19.7100   20.3750   28.4780 H      18  WAT18       0.2052
     52  O         19.1520   24.7960   19.3260 O.3    19  WAT19      -0.4105
     53  H1        19.0700   25.7390   19.4670 H      19  WAT19       0.2052
     54  H2        18.8000   24.6540   18.4470 H      19  WAT19       0.2052
     55  O         26.9520   23.5300   28.3930 O.3    20  WAT20      -0.4105
     56  H1        26.9560   23.0890   27.5430 H      20  WAT20       0.2052
     57  H2        27.8470   23.8520   28.5000 H      20  WAT20       0.2052
     58  O         22.8020   23.4130   27.3520 O.3    21  WAT21      -0.4105
     59  H1        22.4620   23.8900   28.1090 H      21  WAT21       0.2052
     60  H2        22.0400   22.9590   26.9920 H      21  WAT21       0.2052
     61  O         27.0140   24.5310   21.3830 O.3    22  WAT22      -0.4105
     62  H1        27.1350   24.4900   22.3320 H      22  WAT22       0.2052
     63  H2        26.6290   25.3940   21.2280 H      22  WAT22       0.2052
     64  O         26.0260   26.8410   20.7820 O.3    23  WAT23      -0.4105
     65  H1        25.4580   26.3930   20.1550 H      23  WAT23       0.2052
     66  H2        26.7350   27.2010   20.2480 H      23  WAT23       0.2052
     67  O         20.1170   22.3350   26.2680 O.3    24  WAT24      -0.4105
     68  H1        19.8320   21.9700   27.1060 H      24  WAT24       0.2052
     69  H2        20.0550   21.6030   25.6550 H      24  WAT24       0.2052
     70  O         29.7910   21.2270   22.9900 O.3    25  WAT25      -0.4105
     71  H1        28.9770   20.7290   22.9140 H      25  WAT25       0.2052
     72  H2        29.5970   22.0670   22.5730 H      25  WAT25       0.2052
     73  O         19.6100   27.4700   20.2280 O.3    26  WAT26      -0.4105
     74  H1        20.4790   27.7530   20.5120 H      26  WAT26       0.2052
     75  H2        19.1190   28.2840   20.1130 H      26  WAT26       0.2052
     76  O         26.7730   28.8580   24.3490 O.3    27  WAT27      -0.4105
     77  H1        27.2300   29.6680   24.5750 H      27  WAT27       0.2052
     78  H2        26.4220   28.5400   25.1810 H      27  WAT27       0.2052
     79  O         22.6750   19.2020   24.8210 O.3    28  WAT28      -0.4105
     80  H1        22.5460   19.1930   25.7700 H      28  WAT28       0.2052
     81  H2        21.8510   19.5400   24.4700 H      28  WAT28       0.2052
     82  O         26.5020   24.6870   24.2570 O.3    29  WAT29      -0.4105
     83  H1        25.7940   25.1560   24.6980 H      29  WAT29       0.2052
     84  H2        26.7870   24.0290   24.8910 H      29  WAT29       0.2052
     85  O         24.7060   22.9960   21.6320 O.3    30  WAT30      -0.4105
     86  H1        25.5550   23.4330   21.5660 H      30  WAT30       0.2052
     87  H2        24.3390   23.3080   22.4590 H      30  WAT30       0.2052
     88  O         23.6050   29.2490   20.1050 O.3    31  WAT31      -0.4105
     89  H1        24.3710   29.1370   20.6680 H      31  WAT31       0.2052
     90  H2        23.6830   28.5530   19.4530 H      31  WAT31       0.2052
     91  O         22.3000   26.6810   20.7890 O.3    32  WAT32      -0.4105
     92  H1        22.3800   25.7340   20.9000 H      32  WAT32       0.2052
     93  H2        23.1920   27.0120   20.8950 H      32  WAT32       0.2052
     94  O         25.6370   29.2450   22.0790 O.3    33  WAT33      -0.4105
     95  H1        26.0590   29.0790   22.9230 H      33  WAT33       0.2052
     96  H2        25.7620   28.4350   21.5850 H      33  WAT33       0.2052
     97  O         28.1500   28.2690   19.3270 O.3    34  WAT34      -0.4105
     98  H1        28.6700   27.5540   18.9610 H      34  WAT34       0.2052
     99  H2        28.7970   28.9080   19.6270 H      34  WAT34       0.2052
    100  O         24.5330   25.3190   19.0250 O.3    35  WAT35      -0.4105
    101  H1        24.3320   24.4550   19.3870 H      35  WAT35       0.2052
    102  H2        24.3620   25.2320   18.0870 H      35  WAT35       0.2052
    103  O         23.3310   22.4190   19.0130 O.3    36  WAT36      -0.4105
    104  H1        23.6340   22.4260   18.1050 H      36  WAT36       0.2052
    105  H2        24.0710   22.0690   19.5100 H      36  WAT36       0.2052
    106  O         26.5500   21.3620   19.9990 O.3    37  WAT37      -0.4105
    107  H1        26.2020   20.6850   19.4190 H      37  WAT37       0.2052
    108  H2        26.7510   20.9010   20.8130 H      37  WAT37       0.2052
    109  O         19.8900   27.8910   26.3950 O.3    38  WAT38      -0.4105
    110  H1        19.2350   27.6220   25.7510 H      38  WAT38       0.2052
    111  H2        20.7280   27.7810   25.9450 H      38  WAT38       0.2052
    112  O         19.1040   25.1010   22.3380 O.3    39  WAT39      -0.4105
    113  H1        18.2000   25.3640   22.1630 H      39  WAT39       0.2052
    114  H2        19.5880   25.3720   21.5580 H      39  WAT39       0.2052
    115  O         21.6470   24.1570   20.2470 O.3    40  WAT40      -0.4105
    116  H1        22.3560   23.7360   19.7620 H      40  WAT40       0.2052
    117  H2        20.9310   24.2250   19.6150 H      40  WAT40       0.2052
    118  O         21.2940   20.2110   19.2870 O.3    41  WAT41      -0.4105
    119  H1        22.0170   20.7520   19.6060 H      41  WAT41       0.2052
    120  H2        21.5670   19.9380   18.4120 H      41  WAT41       0.2052
    121  O         20.9830   19.4620   29.1900 O.3    42  WAT42      -0.4105
    122  H1        21.6310   18.9120   28.7490 H      42  WAT42       0.2052
    123  H2        21.4040   19.7160   30.0110 H      42  WAT42       0.2052
    124  O         20.7190   20.2510   22.8810 O.3    43  WAT43      -0.4105
    125  H1        21.4770   20.3640   22.3070 H      43  WAT43       0.2052
    126  H2        20.2570   21.0880   22.8350 H      43  WAT43       0.2052
    127  O         27.2600   22.3650   25.8710 O.3    44  WAT44      -0.4105
    128  H1        26.4480   21.9900   25.5310 H      44  WAT44       0.2052
    129  H2        27.7640   21.6090   26.1730 H      44  WAT44       0.2052
    130  O         23.0910   20.7770   21.4210 O.3    45  WAT45      -0.4105
    131  H1        23.6210   19.9900   21.2920 H      45  WAT45       0.2052
    132  H2        23.7240   21.4560   21.6550 H      45  WAT45       0.2052
    133  O         25.2850   20.5150   24.4760 O.3    46  WAT46      -0.4105
    134  H1        24.6550   19.8130   24.6430 H      46  WAT46       0.2052
    135  H2        24.7460   21.2750   24.2590 H      46  WAT46       0.2052
    136  O         29.0500   29.0060    9.7330 O.3    47  WAT47      -0.4105
    137  H1        28.2740   28.5260   10.0230 H      47  WAT47       0.2052
    138  H2        29.7010   28.3260    9.5590 H      47  WAT47       0.2052
    139  O         23.0660   29.3180   10.6110 O.3    48  WAT48      -0.4105
    140  H1        22.2350   29.0620   11.0110 H      48  WAT48       0.2052
    141  H2        23.6750   29.3890   11.3470 H      48  WAT48       0.2052
    142  O         21.4760   24.2780    4.3950 O.3    49  WAT49      -0.4105
    143  H1        20.5870   24.6190    4.2930 H      49  WAT49       0.2052
    144  H2        21.7600   24.0780    3.5030 H      49  WAT49       0.2052
    145  O         19.4390   26.8780   10.2790 O.3    50  WAT50      -0.4105
    146  H1        20.0110   26.1110   10.2800 H      50  WAT50       0.2052
    147  H2        19.4390   27.1770    9.3700 H      50  WAT50       0.2052
    148  O         20.6810   22.2870   12.0660 O.3    51  WAT51      -0.4105
    149  H1        20.5020   21.3890   12.3460 H      51  WAT51       0.2052
    150  H2        20.2790   22.8340   12.7410 H      51  WAT51       0.2052
    151  O         29.5210   24.4880    9.9670 O.3    52  WAT52      -0.4105
    152  H1        29.8980   23.6150    9.8550 H      52  WAT52       0.2052
    153  H2        29.4230   24.8240    9.0760 H      52  WAT52       0.2052
    154  O         23.6520   22.8610    5.4290 O.3    53  WAT53      -0.4105
    155  H1        23.7580   23.7610    5.7360 H      53  WAT53       0.2052
    156  H2        22.7410   22.8130    5.1380 H      53  WAT53       0.2052
    157  O         21.3000   24.7830   10.6740 O.3    54  WAT54      -0.4105
    158  H1        21.9810   25.0470   11.2930 H      54  WAT54       0.2052
    159  H2        20.9850   23.9430   11.0080 H      54  WAT54       0.2052
    160  O         25.4930   25.8300    9.7620 O.3    55  WAT55      -0.4105
    161  H1        26.0000   26.3280   10.4020 H      55  WAT55       0.2052
    162  H2        26.0240   25.0530    9.5850 H      55  WAT55       0.2052
    163  O         23.7760   20.4690   14.0280 O.3    56  WAT56      -0.4105
    164  H1        23.7780   20.9870   13.2220 H      56  WAT56       0.2052
    165  H2        22.9470   19.9920   14.0050 H      56  WAT56       0.2052
    166  O         23.4580   22.1800   12.0350 O.3    57  WAT57      -0.4105
    167  H1        23.7990   23.0250   11.7400 H      57  WAT57       0.2052
    168  H2        22.5190   22.3290   12.1510 H      57  WAT57       0.2052
    169  O         27.1400   19.6690    8.3590 O.3    58  WAT58      -0.4105
    170  H1        27.4480   19.1130    7.6430 H      58  WAT58       0.2052
    171  H2        26.2110   19.8030    8.1770 H      58  WAT58       0.2052
    172  O         29.5290   27.7330    5.0950 O.3    59  WAT59      -0.4105
    173  H1        28.6010   27.6670    5.3240 H      59  WAT59       0.2052
    174  H2        29.6810   28.6710    4.9810 H      59  WAT59       0.2052
    175  O         29.5150   24.0050    2.0920 O.3    60  WAT60      -0.4105
    176  H1        28.5760   24.1670    2.1770 H      60  WAT60       0.2052
    177  H2        29.8340   24.7240    1.5460 H      60  WAT60       0.2052
    178  O         25.1340   28.2600    7.8770 O.3    61  WAT61      -0.4105
    179  H1        24.7300   27.5480    7.3820 H      61  WAT61       0.2052
    180  H2        25.2210   27.9150    8.7660 H      61  WAT61       0.2052
    181  O         23.8470   25.0340   11.6570 O.3    62  WAT62      -0.4105
    182  H1        24.3990   25.1440   10.8830 H      62  WAT62       0.2052
    183  H2        24.3610   25.4080   12.3730 H      62  WAT62       0.2052
    184  O         23.5210   28.5560   15.2680 O.3    63  WAT63      -0.4105
    185  H1        23.3820   29.4280   15.6370 H      63  WAT63       0.2052
    186  H2        22.6390   28.2130   15.1230 H      63  WAT63       0.2052
    187  O         21.8350   27.1540    5.3780 O.3    64  WAT64      -0.4105
    188  H1        21.7140   27.8810    4.7660 H      64  WAT64       0.2052
    189  H2        21.5250   26.3850    4.9010 H      64  WAT64       0.2052
    190  O         24.3010   20.4980    8.7600 O.3    65  WAT65      -0.4105
    191  H1        23.8580   21.2790    8.4290 H      65  WAT65       0.2052
    192  H2        24.8600   20.8210    9.4680 H      65  WAT65       0.2052
    193  O         28.5880   23.3650   14.3640 O.3    66  WAT66      -0.4105
    194  H1        28.1260   23.5730   15.1760 H      66  WAT66       0.2052
    195  H2        28.1860   22.5510   14.0610 H      66  WAT66       0.2052
    196  O         27.4170   20.1190    3.6410 O.3    67  WAT67      -0.4105
    197  H1        26.7920   20.1150    4.3660 H      67  WAT67       0.2052
    198  H2        27.3300   19.2520    3.2450 H      67  WAT67       0.2052
    199  O         26.3390   21.0430   10.6190 O.3    68  WAT68      -0.4105
    200  H1        26.6360   21.9490   10.5390 H      68  WAT68       0.2052
    201  H2        26.8870   20.5550   10.0050 H      68  WAT68       0.2052
    202  O         24.0920   25.6210    6.4890 O.3    69  WAT69      -0.4105
    203  H1        23.8670   25.4050    7.3930 H      69  WAT69       0.2052
    204  H2        23.3120   26.0540    6.1430 H      69  WAT69       0.2052
    205  O         26.5320   26.5200   17.1550 O.3    70  WAT70      -0.4105
    206  H1        26.4370   25.5790   17.0050 H      70  WAT70       0.2052
    207  H2        27.3760   26.7410   16.7590 H      70  WAT70       0.2052
    208  O         21.6630   22.9310   15.3080 O.3    71  WAT71      -0.4105
    209  H1        21.2700   23.7790   15.5150 H      71  WAT71       0.2052
    210  H2        20.9750   22.2940   15.4990 H      71  WAT71       0.2052
    211  O         28.2380   23.0150   18.3780 O.3    72  WAT72      -0.4105
    212  H1        27.5480   22.8220   19.0120 H      72  WAT72       0.2052
    213  H2        28.9810   23.2980   18.9100 H      72  WAT72       0.2052
    214  O         18.9650   20.8540    9.3410 O.3    73  WAT73      -0.4105
    215  H1        18.6760   21.4240   10.0530 H      73  WAT73       0.2052
    216  H2        19.7100   20.3750    9.7040 H      73  WAT73       0.2052
    217  O         19.1520   24.7960    0.5510 O.3    74  WAT74      -0.4105
    218  H1        19.0700   25.7390    0.6930 H      74  WAT74       0.2052
    219  H2        18.8000   24.6540   -0.3280 H      74  WAT74       0.2052
    220  O         26.9520   23.5300    9.6180 O.3    75  WAT75      -0.4105
    221  H1        26.9560   23.0890    8.7690 H      75  WAT75       0.2052
    222  H2        27.8470   23.8520    9.7250 H      75  WAT75       0.2052
    223  O         22.8020   23.4130    8.5780 O.3    76  WAT76      -0.4105
    224  H1        22.4620   23.8900    9.3340 H      76  WAT76       0.2052
    225  H2        22.0400   22.9590    8.2180 H      76  WAT76       0.2052
    226  O         27.0140   24.5310    2.6090 O.3    77  WAT77      -0.4105
    227  H1        27.1350   24.4900    3.5580 H      77  WAT77       0.2052
    228  H2        26.6290   25.3940    2.4540 H      77  WAT77       0.2052
    229  O         26.0260   26.8410    2.0070 O.3    78  WAT78      -0.4105
    230  H1        25.4580   26.3930    1.3810 H      78  WAT78       0.2052
    231  H2        26.7350   27.2010    1.4740 H      78  WAT78       0.2052
    232  O         27.2530   27.5900   11.3650 O.3    79  WAT79      -0.4105
    233  H1        27.6200   27.1160   12.1110 H      79  WAT79       0.2052
    234  H2        27.0630   28.4640   11.7060 H      79  WAT79       0.2052
    235  O         20.1170   22.3350    7.4940 O.3    80  WAT80      -0.4105
    236  H1        19.8320   21.9700    8.3320 H      80  WAT80       0.2052
    237  H2        20.0550   21.6030    6.8800 H      80  WAT80       0.2052
    238  O         25.0430   26.6310   13.6830 O.3    81  WAT81      -0.4105
    239  H1        24.7380   27.5100   13.9080 H      81  WAT81       0.2052
    240  H2        25.9970   26.6910   13.7190 H      81  WAT81       0.2052
    241  O         29.7910   21.2270    4.2150 O.3    82  WAT82      -0.4105
    242  H1        28.9770   20.7290    4.1400 H      82  WAT82       0.2052
    243  H2        29.5970   22.0670    3.7990 H      82  WAT82       0.2052
    244  O         21.0990   27.4710   14.8300 O.3    83  WAT83      -0.4105
    245  H1        20.7410   28.1370   15.4180 H      83  WAT83       0.2052
    246  H2        20.8050   26.6400   15.2020 H      83  WAT83       0.2052
    247  O         24.3000   27.9300   17.7140 O.3    84  WAT84      -0.4105
    248  H1        24.0000   28.0750   16.8170 H      84  WAT84       0.2052
    249  H2        25.0720   27.3700   17.6220 H      84  WAT84       0.2052
    250  O         19.6100   27.4700    1.4540 O.3    85  WAT85      -0.4105
    251  H1        20.4790   27.7530    1.7370 H      85  WAT85       0.2052
    252  H2        19.1190   28.2840    1.3390 H      85  WAT85       0.2052
    253  O         26.7730   28.8580    5.5750 O.3    86  WAT86      -0.4105
    254  H1        27.2300   29.6680    5.8010 H      86  WAT86       0.2052
    255  H2        26.4220   28.5400    6.4060 H      86  WAT86       0.2052
    256  O         22.6750   19.2020    6.0470 O.3    87  WAT87      -0.4105
    257  H1        22.5460   19.1930    6.9950 H      87  WAT87       0.2052
    258  H2        21.8510   19.5400    5.6960 H      87  WAT87       0.2052
    259  O         19.6740   20.9610   15.5080 O.3    88  WAT88      -0.4105
    260  H1        18.9600   21.1600   16.1130 H      88  WAT88       0.2052
    261  H2        20.0930   20.1850   15.8790 H      88  WAT88       0.2052
    262  O         26.5020   24.6870    5.4820 O.3    89  WAT89      -0.4105
    263  H1        25.7940   25.1560    5.9240 H      89  WAT89       0.2052
    264  H2        26.7870   24.0290    6.1170 H      89  WAT89       0.2052
    265  O         28.1280   26.1070   13.4820 O.3    90  WAT90      -0.4105
    266  H1        28.6270   26.5810   14.1470 H      90  WAT90       0.2052
    267  H2        28.2700   25.1830   13.6890 H      90  WAT90       0.2052
    268  O         24.7060   22.9960    2.8570 O.3    91  WAT91      -0.4105
    269  H1        25.5550   23.4330    2.7910 H      91  WAT91       0.2052
    270  H2        24.3390   23.3080    3.6850 H      91  WAT91       0.2052
    271  O         23.6050   29.2490    1.3310 O.3    92  WAT92      -0.4105
    272  H1        24.3710   29.1370    1.8930 H      92  WAT92       0.2052
    273  H2        23.6830   28.5530    0.6790 H      92  WAT92       0.2052
    274  O         22.3000   26.6810    2.0140 O.3    93  WAT93      -0.4105
    275  H1        22.3800   25.7340    2.1260 H      93  WAT93       0.2052
    276  H2        23.1920   27.0120    2.1200 H      93  WAT93       0.2052
    277  O         19.8270   28.5030   17.2500 O.3    94  WAT94      -0.4105
    278  H1        20.3310   27.9240   17.8210 H      94  WAT94       0.2052
    279  H2        19.0880   28.7870   17.7870 H      94  WAT94       0.2052
    280  O         21.8590   26.6460   18.1450 O.3    95  WAT95      -0.4105
    281  H1        21.9000   26.3470   19.0530 H      95  WAT95       0.2052
    282  H2        22.7140   27.0470   17.9860 H      95  WAT95       0.2052
    283  O         25.6370   29.2450    3.3050 O.3    96  WAT96      -0.4105
    284  H1        26.0590   29.0790    4.1480 H      96  WAT96       0.2052
    285  H2        25.7620   28.4350    2.8110 H      96  WAT96       0.2052
    286  O         23.8000   25.2250   16.1120 O.3    97  WAT97      -0.4105
    287  H1        23.2690   24.7340   15.4850 H      97  WAT97       0.2052
    288  H2        24.4690   25.6530   15.5780 H      97  WAT97       0.2052
    289  O         28.1500   28.2690    0.5530 O.3    98  WAT98      -0.4105
    290  H1        28.6700   27.5540    0.1870 H      98  WAT98       0.2052
    291  H2        28.7970   28.9080    0.8530 H      98  WAT98       0.2052
    292  O         24.2870   22.1910   16.1920 O.3    99  WAT99      -0.4105
    293  H1        24.1930   21.5730   15.4670 H      99  WAT99       0.2052
    294  H2        23.7070   22.9180   15.9650 H      99  WAT99       0.2052
    295  O         27.0530   20.7490   13.2250 O.3   100  WAT100     -0.4105
    296  H1        26.6050   20.7710   12.3790 H     100  WAT100      0.2052
    297  H2        26.4200   20.3510   13.8220 H     100  WAT100      0.2052
    298  O         24.5330   25.3190    0.2510 O.3   101  WAT101     -0.4105
    299  H1        24.3320   24.4550    0.6120 H     101  WAT101      0.2052
    300  H2        24.3620   25.2320   -0.6870 H     101  WAT101      0.2052
    301  O         26.5620   23.9180   16.4870 O.3   102  WAT102     -0.4105
    302  H1        27.1520   23.6090   17.1750 H     102  WAT102      0.2052
    303  H2        25.7440   23.4460   16.6430 H     102  WAT102      0.2052
    304  O         23.3310   22.4190    0.2390 O.3   103  WAT103     -0.4105
    305  H1        23.6340   22.4260   -0.6690 H     103  WAT103      0.2052
    306  H2        24.0710   22.0690    0.7360 H     103  WAT103      0.2052
    307  O         26.5500   21.3620    1.2240 O.3   104  WAT104     -0.4105
    308  H1        26.2020   20.6850    0.6450 H     104  WAT104      0.2052
    309  H2        26.7510   20.9010    2.0390 H     104  WAT104      0.2052
    310  O         19.8900   27.8910    7.6210 O.3   105  WAT105     -0.4105
    311  H1        19.2350   27.6220    6.9770 H     105  WAT105      0.2052
    312  H2        20.7280   27.7810    7.1710 H     105  WAT105      0.2052
    313  O         20.9280   28.2760   12.1610 O.3   106  WAT106     -0.4105
    314  H1        21.2950   28.1890   13.0410 H     106  WAT106      0.2052
    315  H2        20.3590   27.5130   12.0620 H     106  WAT106      0.2052
    316  O         20.4790   25.1870   16.0670 O.3   107  WAT107     -0.4105
    317  H1        19.5850   25.1540   16.4060 H     107  WAT107      0.2052
    318  H2        21.0190   25.3860   16.8320 H     107  WAT107      0.2052
    319  O         19.1040   25.1010    3.5630 O.3   108  WAT108     -0.4105
    320  H1        18.2000   25.3640    3.3890 H     108  WAT108      0.2052
    321  H2        19.5880   25.3720    2.7830 H     108  WAT108      0.2052
    322  O         21.6470   24.1570    1.4730 O.3   109  WAT109     -0.4105
    323  H1        22.3560   23.7360    0.9880 H     109  WAT109      0.2052
    324  H2        20.9310   24.2250    0.8410 H     109  WAT109      0.2052
    325  O         21.2940   20.2110    0.5130 O.3   110  WAT110     -0.4105
    326  H1        22.0170   20.7520    0.8310 H     110  WAT110      0.2052
    327  H2        21.5670   19.9380   -0.3630 H     110  WAT110      0.2052
    328  O         20.9830   19.4620   10.4150 O.3   111  WAT111     -0.4105
    329  H1        21.6310   18.9120    9.9750 H     111  WAT111      0.2052
    330  H2        21.4040   19.7160   11.2370 H     111  WAT111      0.2052
    331  O         20.7370   19.6180   13.1580 O.3   112  WAT112     -0.4105
    332  H1        20.3880   20.0740   13.9240 H     112  WAT112      0.2052
    333  H2        20.4050   18.7230   13.2400 H     112  WAT112      0.2052
    334  O         28.2490   20.8090   16.6800 O.3   113  WAT113     -0.4105
    335  H1        28.1880   21.4010   17.4290 H     113  WAT113      0.2052
    336  H2        29.1890   20.7010   16.5350 H     113  WAT113      0.2052
    337  O         21.4090   19.1450   16.4330 O.3   114  WAT114     -0.4105
    338  H1        21.9570   18.9640   15.6700 H     114  WAT114      0.2052
    339  H2        21.4740   18.3550   16.9690 H     114  WAT114      0.2052
    340  O         29.3750   19.9460   11.5850 O.3   115  WAT115     -0.4105
    341  H1        28.5920   20.4210   11.8650 H     115  WAT115      0.2052
    342  H2        29.0810   19.0410   11.4770 H     115  WAT115      0.2052
    343  O         20.7190   20.2510    4.1070 O.3   116  WAT116     -0.4105
    344  H1        21.4770   20.3640    3.5330 H     116  WAT116      0.2052
    345  H2        20.2570   21.0880    4.0610 H     116  WAT116      0.2052
    346  O         27.2600   22.3650    7.0970 O.3   117  WAT117     -0.4105
    347  H1        26.4480   21.9900    6.7560 H     117  WAT117      0.2052
    348  H2        27.7640   21.6090    7.3990 H     117  WAT117      0.2052
    349  O         23.0910   20.7770    2.6470 O.3   118  WAT118     -0.4105
    350  H1        23.6210   19.9900    2.5180 H     118  WAT118      0.2052
    351  H2        23.7240   21.4560    2.8800 H     118  WAT118      0.2052
    352  O         25.2850   20.5150    5.7010 O.3   119  WAT119     -0.4105
    353  H1        24.6550   19.8130    5.8680 H     119  WAT119      0.2052
    354  H2        24.7460   21.2750    5.4850 H     119  WAT119      0.2052
    355  O         25.4110   19.7930   18.1370 O.3   120  WAT120     -0.4105
    356  H1        25.1290   20.2960   17.3730 H     120  WAT120      0.2052
    357  H2        25.7930   18.9950   17.7710 H     120  WAT120      0.2052
    358  O         29.0500   29.0060   -9.0410 O.3   121  WAT121     -0.4105
    359  H1        28.2740   28.5260   -8.7510 H     121  WAT121      0.2052
    360  H2        29.7010   28.3260   -9.2150 H     121  WAT121      0.2052
    361  O         23.0660   29.3180   -8.1630 O.3   122  WAT122     -0.4105
    362  H1        22.2350   29.0620   -7.7640 H     122  WAT122      0.2052
    363  H2        23.6750   29.3890   -7.4280 H     122  WAT122      0.2052
    364  O         21.4760   24.2780  -14.3790 O.3   123  WAT123     -0.4105
    365  H1        20.5870   24.6190  -14.4810 H     123  WAT123      0.2052
    366  H2        21.7600   24.0780  -15.2710 H     123  WAT123      0.2052
    367  O         19.4390   26.8780   -8.4950 O.3   124  WAT124     -0.4105
    368  H1        20.0110   26.1110   -8.4950 H     124  WAT124      0.2052
    369  H2        19.4390   27.1770   -9.4050 H     124  WAT124      0.2052
    370  O         20.6810   22.2870   -6.7080 O.3   125  WAT125     -0.4105
    371  H1        20.5020   21.3890   -6.4280 H     125  WAT125      0.2052
    372  H2        20.2790   22.8340   -6.0340 H     125  WAT125      0.2052
    373  O         29.5210   24.4880   -8.8070 O.3   126  WAT126     -0.4105
    374  H1        29.8980   23.6150   -8.9200 H     126  WAT126      0.2052
    375  H2        29.4230   24.8240   -9.6980 H     126  WAT126      0.2052
    376  O         23.6520   22.8610  -13.3450 O.3   127  WAT127     -0.4105
    377  H1        23.7580   23.7610  -13.0380 H     127  WAT127      0.2052
    378  H2        22.7410   22.8130  -13.6360 H     127  WAT127      0.2052
    379  O         21.3000   24.7830   -8.1000 O.3   128  WAT128     -0.4105
    380  H1        21.9810   25.0470   -7.4810 H     128  WAT128      0.2052
    381  H2        20.9850   23.9430   -7.7660 H     128  WAT128      0.2052
    382  O         25.4930   25.8300   -9.0130 O.3   129  WAT129     -0.4105
    383  H1        26.0000   26.3280   -8.3720 H     129  WAT129      0.2052
    384  H2        26.0240   25.0530   -9.1890 H     129  WAT129      0.2052
    385  O         23.7760   20.4690   -4.7460 O.3   130  WAT130     -0.4105
    386  H1        23.7780   20.9870   -5.5520 H     130  WAT130      0.2052
    387  H2        22.9470   19.9920   -4.7690 H     130  WAT130      0.2052
    388  O         23.4580   22.1800   -6.7390 O.3   131  WAT131     -0.4105
    389  H1        23.7990   23.0250   -7.0340 H     131  WAT131      0.2052
    390  H2        22.5190   22.3290   -6.6230 H     131  WAT131      0.2052
    391  O         27.1400   19.6690  -10.4150 O.3   132  WAT132     -0.4105
    392  H1        27.4480   19.1130  -11.1310 H     132  WAT132      0.2052
    393  H2        26.2110   19.8030  -10.5980 H     132  WAT132      0.2052
    394  O         29.5290   27.7330  -13.6790 O.3   133  WAT133     -0.4105
    395  H1        28.6010   27.6670  -13.4500 H     133  WAT133      0.2052
    396  H2        29.6810   28.6710  -13.7930 H     133  WAT133      0.2052
    397  O         29.5150   24.0050  -16.6820 O.3   134  WAT134     -0.4105
    398  H1        28.5760   24.1670  -16.5970 H     134  WAT134      0.2052
    399  H2        29.8340   24.7240  -17.2290 H     134  WAT134      0.2052
    400  O         25.1340   28.2600  -10.8970 O.3   135  WAT135     -0.4105
    401  H1        24.7300   27.5480  -11.3920 H     135  WAT135      0.2052
    402  H2        25.2210   27.9150  -10.0080 H     135  WAT135      0.2052
    403  O         23.8470   25.0340   -7.1170 O.3   136  WAT136     -0.4105
    404  H1        24.3990   25.1440   -7.8920 H     136  WAT136      0.2052
    405  H2        24.3610   25.4080   -6.4020 H     136  WAT136      0.2052
    406  O         23.5210   28.5560   -3.5070 O.3   137  WAT137     -0.4105
    407  H1        23.3820   29.4280   -3.1380 H     137  WAT137      0.2052
    408  H2        22.6390   28.2130   -3.6520 H     137  WAT137      0.2052
    409  O         21.8350   27.1540  -13.3960 O.3   138  WAT138     -0.4105
    410  H1        21.7140   27.8810  -14.0080 H     138  WAT138      0.2052
    411  H2        21.5250   26.3850  -13.8740 H     138  WAT138      0.2052
    412  O         24.3010   20.4980  -10.0140 O.3   139  WAT139     -0.4105
    413  H1        23.8580   21.2790  -10.3450 H     139  WAT139      0.2052
    414  H2        24.8600   20.8210   -9.3070 H     139  WAT139      0.2052
    415  O         28.5880   23.3650   -4.4100 O.3   140  WAT140     -0.4105
    416  H1        28.1260   23.5730   -3.5980 H     140  WAT140      0.2052
    417  H2        28.1860   22.5510   -4.7130 H     140  WAT140      0.2052
    418  O         27.4170   20.1190  -15.1330 O.3   141  WAT141     -0.4105
    419  H1        26.7920   20.1150  -14.4080 H     141  WAT141      0.2052
    420  H2        27.3300   19.2520  -15.5300 H     141  WAT141      0.2052
    421  O         26.3390   21.0430   -8.1550 O.3   142  WAT142     -0.4105
    422  H1        26.6360   21.9490   -8.2360 H     142  WAT142      0.2052
    423  H2        26.8870   20.5550   -8.7690 H     142  WAT142      0.2052
    424  O         24.0920   25.6210  -12.2860 O.3   143  WAT143     -0.4105
    425  H1        23.8670   25.4050  -11.3810 H     143  WAT143      0.2052
    426  H2        23.3120   26.0540  -12.6310 H     143  WAT143      0.2052
    427  O         26.5320   26.5200   -1.6200 O.3   144  WAT144     -0.4105
    428  H1        26.4370   25.5790   -1.7700 H     144  WAT144      0.2052
    429  H2        27.3760   26.7410   -2.0150 H     144  WAT144      0.2052
    430  O         21.6630   22.9310   -3.4660 O.3   145  WAT145     -0.4105
    431  H1        21.2700   23.7790   -3.2590 H     145  WAT145      0.2052
    432  H2        20.9750   22.2940   -3.2760 H     145  WAT145      0.2052
    433  O         28.2380   23.0150   -0.3970 O.3   146  WAT146     -0.4105
    434  H1        27.5480   22.8220    0.2380 H     146  WAT146      0.2052
    435  H2        28.9810   23.2980    0.1360 H     146  WAT146      0.2052
    436  O         18.9650   20.8540   -9.4330 O.3   147  WAT147     -0.4105
    437  H1        18.6760   21.4240   -8.7210 H     147  WAT147      0.2052
    438  H2        19.7100   20.3750   -9.0700 H     147  WAT147      0.2052
    439  O         19.1520   24.7960  -18.2230 O.3   148  WAT148     -0.4105
    440  H1        19.0700   25.7390  -18.0820 H     148  WAT148      0.2052
    441  H2        18.8000   24.6540  -19.1020 H     148  WAT148      0.2052
    442  O         26.9520   23.5300   -9.1560 O.3   149  WAT149     -0.4105
    443  H1        26.9560   23.0890  -10.0060 H     149  WAT149      0.2052
    444  H2        27.8470   23.8520   -9.0490 H     149  WAT149      0.2052
    445  O         22.8020   23.4130  -10.1970 O.3   150  WAT150     -0.4105
    446  H1        22.4620   23.8900   -9.4400 H     150  WAT150      0.2052
    447  H2        22.0400   22.9590  -10.5570 H     150  WAT150      0.2052
    448  O         27.0140   24.5310  -16.1650 O.3   151  WAT151     -0.4105
    449  H1        27.1350   24.4900  -15.2170 H     151  WAT151      0.2052
    450  H2        26.6290   25.3940  -16.3210 H     151  WAT151      0.2052
    451  O         26.0260   26.8410  -16.7670 O.3   152  WAT152     -0.4105
    452  H1        25.4580   26.3930  -17.3930 H     152  WAT152      0.2052
    453  H2        26.7350   27.2010  -17.3010 H     152  WAT152      0.2052
    454  O         27.2530   27.5900   -7.4100 O.3   153  WAT153     -0.4105
    455  H1        27.6200   27.1160   -6.6630 H     153  WAT153      0.2052
    456  H2        27.0630   28.4640   -7.0690 H     153  WAT153      0.2052
    457  O         20.1170   22.3350  -11.2800 O.3   154  WAT154     -0.4105
    458  H1        19.8320   21.9700  -10.4420 H     154  WAT154      0.2052
    459  H2        20.0550   21.6030  -11.8940 H     154  WAT154      0.2052
    460  O         25.0430   26.6310   -5.0910 O.3   155  WAT155     -0.4105
    461  H1        24.7380   27.5100   -4.8660 H     155  WAT155      0.2052
    462  H2        25.9970   26.6910   -5.0550 H     155  WAT155      0.2052
    463  O         29.7910   21.2270  -14.5590 O.3   156  WAT156     -0.4105
    464  H1        28.9770   20.7290  -14.6340 H     156  WAT156      0.2052
    465  H2        29.5970   22.0670  -14.9750 H     156  WAT156      0.2052
    466  O         21.0990   27.4710   -3.9440 O.3   157  WAT157     -0.4105
    467  H1        20.7410   28.1370   -3.3570 H     157  WAT157      0.2052
    468  H2        20.8050   26.6400   -3.5730 H     157  WAT157      0.2052
    469  O         24.3000   27.9300   -1.0600 O.3   158  WAT158     -0.4105
    470  H1        24.0000   28.0750   -1.9570 H     158  WAT158      0.2052
    471  H2        25.0720   27.3700   -1.1530 H     158  WAT158      0.2052
    472  O         19.6100   27.4700  -17.3210 O.3   159  WAT159     -0.4105
    473  H1        20.4790   27.7530  -17.0370 H     159  WAT159      0.2052
    474  H2        19.1190   28.2840  -17.4360 H     159  WAT159      0.2052
    475  O         26.7730   28.8580  -13.2000 O.3   160  WAT160     -0.4105
    476  H1        27.2300   29.6680  -12.9740 H     160  WAT160      0.2052
    477  H2        26.4220   28.5400  -12.3680 H     160  WAT160      0.2052
    478  O         22.6750   19.2020  -12.7270 O.3   161  WAT161     -0.4105
    479  H1        22.5460   19.1930  -11.7790 H     161  WAT161      0.2052
    480  H2        21.8510   19.5400  -13.0780 H     161  WAT161      0.2052
    481  O         19.6740   20.9610   -3.2670 O.3   162  WAT162     -0.4105
    482  H1        18.9600   21.1600   -2.6620 H     162  WAT162      0.2052
    483  H2        20.0930   20.1850   -2.8950 H     162  WAT162      0.2052
    484  O         26.5020   24.6870  -13.2920 O.3   163  WAT163     -0.4105
    485  H1        25.7940   25.1560  -12.8510 H     163  WAT163      0.2052
    486  H2        26.7870   24.0290  -12.6580 H     163  WAT163      0.2052
    487  O         28.1280   26.1070   -5.2930 O.3   164  WAT164     -0.4105
    488  H1        28.6270   26.5810   -4.6280 H     164  WAT164      0.2052
    489  H2        28.2700   25.1830   -5.0860 H     164  WAT164      0.2052
    490  O         24.7060   22.9960  -15.9170 O.3   165  WAT165     -0.4105
    491  H1        25.5550   23.4330  -15.9830 H     165  WAT165      0.2052
    492  H2        24.3390   23.3080  -15.0900 H     165  WAT165      0.2052
    493  O         23.6050   29.2490  -17.4430 O.3   166  WAT166     -0.4105
    494  H1        24.3710   29.1370  -16.8810 H     166  WAT166      0.2052
    495  H2        23.6830   28.5530  -18.0960 H     166  WAT166      0.2052
    496  O         22.3000   26.6810  -16.7600 O.3   167  WAT167     -0.4105
    497  H1        22.3800   25.7340  -16.6480 H     167  WAT167      0.2052
    498  H2        23.1920   27.0120  -16.6540 H     167  WAT167      0.2052
    499  O         19.8270   28.5030   -1.5250 O.3   168  WAT168     -0.4105
    500  H1        20.3310   27.9240   -0.9530 H     168  WAT168      0.2052
    501  H2        19.0880   28.7870   -0.9870 H     168  WAT168      0.2052
    502  O         21.8590   26.6460   -0.6300 O.3   169  WAT169     -0.4105
    503  H1        21.9000   26.3470    0.2790 H     169  WAT169      0.2052
    504  H2        22.7140   27.0470   -0.7890 H     169  WAT169      0.2052
    505  O         25.6370   29.2450  -15.4690 O.3   170  WAT170     -0.4105
    506  H1        26.0590   29.0790  -14.6260 H     170  WAT170      0.2052
    507  H2        25.7620   28.4350  -15.9640 H     170  WAT170      0.2052
    508  O         23.8000   25.2250   -2.6620 O.3   171  WAT171     -0.4105
    509  H1        23.2690   24.7340   -3.2900 H     171  WAT171      0.2052
    510  H2        24.4690   25.6530   -3.1960 H     171  WAT171      0.2052
    511  O         28.1500   28.2690  -18.2210 O.3   172  WAT172     -0.4105
    512  H1        28.6700   27.5540  -18.5870 H     172  WAT172      0.2052
    513  H2        28.7970   28.9080  -17.9210 H     172  WAT172      0.2052
    514  O         24.2870   22.1910   -2.5820 O.3   173  WAT173     -0.4105
    515  H1        24.1930   21.5730   -3.3070 H     173  WAT173      0.2052
    516  H2        23.7070   22.9180   -2.8090 H     173  WAT173      0.2052
    517  O         27.0530   20.7490   -5.5500 O.3   174  WAT174     -0.4105
    518  H1        26.6050   20.7710   -6.3950 H     174  WAT174      0.2052
    519  H2        26.4200   20.3510   -4.9530 H     174  WAT174      0.2052
    520  O         24.5330   25.3190  -18.5230 O.3   175  WAT175     -0.4105
    521  H1        24.3320   24.4550  -18.1620 H     175  WAT175      0.2052
    522  H2        24.3620   25.2320  -19.4610 H     175  WAT175      0.2052
    523  O         26.5620   23.9180   -2.2870 O.3   176  WAT176     -0.4105
    524  H1        27.1520   23.6090   -1.5990 H     176  WAT176      0.2052
    525  H2        25.7440   23.4460   -2.1310 H     176  WAT176      0.2052
    526  O         23.3310   22.4190  -18.5360 O.3   177  WAT177     -0.4105
    527  H1        23.6340   22.4260  -19.4440 H     177  WAT177      0.2052
    528  H2        24.0710   22.0690  -18.0390 H     177  WAT177      0.2052
    529  O         26.5500   21.3620  -17.5500 O.3   178  WAT178     -0.4105
    530  H1        26.2020   20.6850  -18.1300 H     178  WAT178      0.2052
    531  H2        26.7510   20.9010  -16.7360 H     178  WAT178      0.2052
    532  O         19.8900   27.8910  -11.1540 O.3   179  WAT179     -0.4105
    533  H1        19.2350   27.6220  -11.7980 H     179  WAT179      0.2052
    534  H2        20.7280   27.7810  -11.6030 H     179  WAT179      0.2052
    535  O         20.9280   28.2760   -6.6130 O.3   180  WAT180     -0.4105
    536  H1        21.2950   28.1890   -5.7340 H     180  WAT180      0.2052
    537  H2        20.3590   27.5130   -6.7130 H     180  WAT180      0.2052
    538  O         20.4790   25.1870   -2.7070 O.3   181  WAT181     -0.4105
    539  H1        19.5850   25.1540   -2.3680 H     181  WAT181      0.2052
    540  H2        21.0190   25.3860   -1.9420 H     181  WAT181      0.2052
    541  O         19.1040   25.1010  -15.2110 O.3   182  WAT182     -0.4105
    542  H1        18.2000   25.3640  -15.3860 H     182  WAT182      0.2052
    543  H2        19.5880   25.3720  -15.9910 H     182  WAT182      0.2052
    544  O         21.6470   24.1570  -17.3020 O.3   183  WAT183     -0.4105
    545  H1        22.3560   23.7360  -17.7870 H     183  WAT183      0.2052
    546  H2        20.9310   24.2250  -17.9330 H     183  WAT183      0.2052
    547  O         21.2940   20.2110  -18.2610 O.3   184  WAT184     -0.4105
    548  H1        22.0170   20.7520  -17.9430 H     184  WAT184      0.2052
    549  H2        21.5670   19.9380  -19.1370 H     184  WAT184      0.2052
    550  O         20.9830   19.4620   -8.3590 O.3   185  WAT185     -0.4105
    551  H1        21.6310   18.9120   -8.8000 H     185  WAT185      0.2052
    552  H2        21.4040   19.7160   -7.5370 H     185  WAT185      0.2052
    553  O         20.7370   19.6180   -5.6170 O.3   186  WAT186     -0.4105
    554  H1        20.3880   20.0740   -4.8510 H     186  WAT186      0.2052
    555  H2        20.4050   18.7230   -5.5340 H     186  WAT186      0.2052
    556  O         28.2490   20.8090   -2.0950 O.3   187  WAT187     -0.4105
    557  H1        28.1880   21.4010   -1.3450 H     187  WAT187      0.2052
    558  H2        29.1890   20.7010   -2.2400 H     187  WAT187      0.2052
    559  O         21.4090   19.1450   -2.3410 O.3   188  WAT188     -0.4105
    560  H1        21.9570   18.9640   -3.1050 H     188  WAT188      0.2052
    561  H2        21.4740   18.3550   -1.8060 H     188  WAT188      0.2052
    562  O         29.3750   19.9460   -7.1890 O.3   189  WAT189     -0.4105
    563  H1        28.5920   20.4210   -6.9090 H     189  WAT189      0.2052
    564  H2        29.0810   19.0410   -7.2980 H     189  WAT189      0.2052
    565  O         20.7190   20.2510  -14.6680 O.3   190  WAT190     -0.4105
    566  H1        21.4770   20.3640  -15.2410 H     190  WAT190      0.2052
    567  H2        20.2570   21.0880  -14.7130 H     190  WAT190      0.2052
    568  O         27.2600   22.3650  -11.6780 O.3   191  WAT191     -0.4105
    569  H1        26.4480   21.9900  -12.0180 H     191  WAT191      0.2052
    570  H2        27.7640   21.6090  -11.3750 H     191  WAT191      0.2052
    571  O         23.0910   20.7770  -16.1280 O.3   192  WAT192     -0.4105
    572  H1        23.6210   19.9900  -16.2570 H     192  WAT192      0.2052
    573  H2        23.7240   21.4560  -15.8940 H     192  WAT192      0.2052
    574  O         25.2850   20.5150  -13.0730 O.3   193  WAT193     -0.4105
    575  H1        24.6550   19.8130  -12.9060 H     193  WAT193      0.2052
    576  H2        24.7460   21.2750  -13.2900 H     193  WAT193      0.2052
    577  O         25.4110   19.7930   -0.6380 O.3   194  WAT194     -0.4105
    578  H1        25.1290   20.2960   -1.4020 H     194  WAT194      0.2052
    579  H2        25.7930   18.9950   -1.0040 H     194  WAT194      0.2052
    580  O         29.0500   29.0060  -27.8150 O.3   195  WAT195     -0.4105
    581  H1        28.2740   28.5260  -27.5250 H     195  WAT195      0.2052
    582  H2        29.7010   28.3260  -27.9900 H     195  WAT195      0.2052
    583  O         23.0660   29.3180  -26.9380 O.3   196  WAT196     -0.4105
    584  H1        22.2350   29.0620  -26.5380 H     196  WAT196      0.2052
    585  H2        23.6750   29.3890  -26.2020 H     196  WAT196      0.2052
    586  O         19.4390   26.8780  -27.2700 O.3   197  WAT197     -0.4105
    587  H1        20.0110   26.1110  -27.2690 H     197  WAT197      0.2052
    588  H2        19.4390   27.1770  -28.1790 H     197  WAT197      0.2052
    589  O         20.6810   22.2870  -25.4830 O.3   198  WAT198     -0.4105
    590  H1        20.5020   21.3890  -25.2020 H     198  WAT198      0.2052
    591  H2        20.2790   22.8340  -24.8080 H     198  WAT198      0.2052
    592  O         29.5210   24.4880  -27.5810 O.3   199  WAT199     -0.4105
    593  H1        29.8980   23.6150  -27.6940 H     199  WAT199      0.2052
    594  H2        29.4230   24.8240  -28.4720 H     199  WAT199      0.2052
    595  O         21.3000   24.7830  -26.8740 O.3   200  WAT200     -0.4105
    596  H1        21.9810   25.0470  -26.2560 H     200  WAT200      0.2052
    597  H2        20.9850   23.9430  -26.5410 H     200  WAT200      0.2052
    598  O         25.4930   25.8300  -27.7870 O.3   201  WAT201     -0.4105
    599  H1        26.0000   26.3280  -27.1470 H     201  WAT201      0.2052
    600  H2        26.0240   25.0530  -27.9630 H     201  WAT201      0.2052
    601  O         23.7760   20.4690  -23.5210 O.3   202  WAT202     -0.4105
    602  H1        23.7780   20.9870  -24.3260 H     202  WAT202      0.2052
    603  H2        22.9470   19.9920  -23.5440 H     202  WAT202      0.2052
    604  O         23.4580   22.1800  -25.5140 O.3   203  WAT203     -0.4105
    605  H1        23.7990   23.0250  -25.8080 H     203  WAT203      0.2052
    606  H2        22.5190   22.3290  -25.3970 H     203  WAT203      0.2052
    607  O         27.1400   19.6690  -29.1890 O.3   204  WAT204     -0.4105
    608  H1        27.4480   19.1130  -29.9060 H     204  WAT204      0.2052
    609  H2        26.2110   19.8030  -29.3720 H     204  WAT204      0.2052
    610  O         23.8470   25.0340  -25.8910 O.3   205  WAT205     -0.4105
    611  H1        24.3990   25.1440  -26.6660 H     205  WAT205      0.2052
    612  H2        24.3610   25.4080  -25.1760 H     205  WAT205      0.2052
    613  O         23.5210   28.5560  -22.2810 O.3   206  WAT206     -0.4105
    614  H1        23.3820   29.4280  -21.9120 H     206  WAT206      0.2052
    615  H2        22.6390   28.2130  -22.4260 H     206  WAT206      0.2052
    616  O         24.3010   20.4980  -28.7880 O.3   207  WAT207     -0.4105
    617  H1        23.8580   21.2790  -29.1200 H     207  WAT207      0.2052
    618  H2        24.8600   20.8210  -28.0810 H     207  WAT207      0.2052
    619  O         28.5880   23.3650  -23.1850 O.3   208  WAT208     -0.4105
    620  H1        28.1260   23.5730  -22.3730 H     208  WAT208      0.2052
    621  H2        28.1860   22.5510  -23.4880 H     208  WAT208      0.2052
    622  O         26.3390   21.0430  -26.9290 O.3   209  WAT209     -0.4105
    623  H1        26.6360   21.9490  -27.0100 H     209  WAT209      0.2052
    624  H2        26.8870   20.5550  -27.5430 H     209  WAT209      0.2052
    625  O         26.5320   26.5200  -20.3940 O.3   210  WAT210     -0.4105
    626  H1        26.4370   25.5790  -20.5440 H     210  WAT210      0.2052
    627  H2        27.3760   26.7410  -20.7890 H     210  WAT210      0.2052
    628  O         21.6630   22.9310  -22.2410 O.3   211  WAT211     -0.4105
    629  H1        21.2700   23.7790  -22.0330 H     211  WAT211      0.2052
    630  H2        20.9750   22.2940  -22.0500 H     211  WAT211      0.2052
    631  O         28.2380   23.0150  -19.1710 O.3   212  WAT212     -0.4105
    632  H1        27.5480   22.8220  -18.5360 H     212  WAT212      0.2052
    633  H2        28.9810   23.2980  -18.6390 H     212  WAT212      0.2052
    634  O         18.9650   20.8540  -28.2080 O.3   213  WAT213     -0.4105
    635  H1        18.6760   21.4240  -27.4950 H     213  WAT213      0.2052
    636  H2        19.7100   20.3750  -27.8450 H     213  WAT213      0.2052
    637  O         26.9520   23.5300  -27.9300 O.3   214  WAT214     -0.4105
    638  H1        26.9560   23.0890  -28.7800 H     214  WAT214      0.2052
    639  H2        27.8470   23.8520  -27.8230 H     214  WAT214      0.2052
    640  O         22.8020   23.4130  -28.9710 O.3   215  WAT215     -0.4105
    641  H1        22.4620   23.8900  -28.2140 H     215  WAT215      0.2052
    642  H2        22.0400   22.9590  -29.3310 H     215  WAT215      0.2052
    643  O         27.2530   27.5900  -26.1840 O.3   216  WAT216     -0.4105
    644  H1        27.6200   27.1160  -25.4380 H     216  WAT216      0.2052
    645  H2        27.0630   28.4640  -25.8430 H     216  WAT216      0.2052
    646  O         25.0430   26.6310  -23.8650 O.3   217  WAT217     -0.4105
    647  H1        24.7380   27.5100  -23.6400 H     217  WAT217      0.2052
    648  H2        25.9970   26.6910  -23.8300 H     217  WAT217      0.2052
    649  O         21.0990   27.4710  -22.7180 O.3   218  WAT218     -0.4105
    650  H1        20.7410   28.1370  -22.1310 H     218  WAT218      0.2052
    651  H2        20.8050   26.6400  -22.3470 H     218  WAT218      0.2052
    652  O         24.3000   27.9300  -19.8340 O.3   219  WAT219     -0.4105
    653  H1        24.0000   28.0750  -20.7320 H     219  WAT219      0.2052
    654  H2        25.0720   27.3700  -19.9270 H     219  WAT219      0.2052
    655  O         19.6740   20.9610  -22.0410 O.3   220  WAT220     -0.4105
    656  H1        18.9600   21.1600  -21.4360 H     220  WAT220      0.2052
    657  H2        20.0930   20.1850  -21.6700 H     220  WAT220      0.2052
    658  O         28.1280   26.1070  -24.0670 O.3   221  WAT221     -0.4105
    659  H1        28.6270   26.5810  -23.4020 H     221  WAT221      0.2052
    660  H2        28.2700   25.1830  -23.8600 H     221  WAT221      0.2052
    661  O         19.8270   28.5030  -20.2990 O.3   222  WAT222     -0.4105
    662  H1        20.3310   27.9240  -19.7270 H     222  WAT222      0.2052
    663  H2        19.0880   28.7870  -19.7610 H     222  WAT222      0.2052
    664  O         21.8590   26.6460  -19.4040 O.3   223  WAT223     -0.4105
    665  H1        21.9000   26.3470  -18.4950 H     223  WAT223      0.2052
    666  H2        22.7140   27.0470  -19.5630 H     223  WAT223      0.2052
    667  O         23.8000   25.2250  -21.4360 O.3   224  WAT224     -0.4105
    668  H1        23.2690   24.7340  -22.0640 H     224  WAT224      0.2052
    669  H2        24.4690   25.6530  -21.9710 H     224  WAT224      0.2052
    670  O         24.2870   22.1910  -21.3570 O.3   225  WAT225     -0.4105
    671  H1        24.1930   21.5730  -22.0820 H     225  WAT225      0.2052
    672  H2        23.7070   22.9180  -21.5840 H     225  WAT225      0.2052
    673  O         27.0530   20.7490  -24.3240 O.3   226  WAT226     -0.4105
    674  H1        26.6050   20.7710  -25.1690 H     226  WAT226      0.2052
    675  H2        26.4200   20.3510  -23.7270 H     226  WAT226      0.2052
    676  O         26.5620   23.9180  -21.0610 O.3   227  WAT227     -0.4105
    677  H1        27.1520   23.6090  -20.3740 H     227  WAT227      0.2052
    678  H2        25.7440   23.4460  -20.9050 H     227  WAT227      0.2052
    679  O         20.9280   28.2760  -25.3880 O.3   228  WAT228     -0.4105
    680  H1        21.2950   28.1890  -24.5080 H     228  WAT228      0.2052
    681  H2        20.3590   27.5130  -25.4870 H     228  WAT228      0.2052
    682  O         20.4790   25.1870  -21.4820 O.3   229  WAT229     -0.4105
    683  H1        19.5850   25.1540  -21.1420 H     229  WAT229      0.2052
    684  H2        21.0190   25.3860  -20.7170 H     229  WAT229      0.2052
    685  O         20.9830   19.4620  -27.1330 O.3   230  WAT230     -0.4105
    686  H1        21.6310   18.9120  -27.5740 H     230  WAT230      0.2052
    687  H2        21.4040   19.7160  -26.3120 H     230  WAT230      0.2052
    688  O         20.7370   19.6180  -24.3910 O.3   231  WAT231     -0.4105
    689  H1        20.3880   20.0740  -23.6250 H     231  WAT231      0.2052
    690  H2        20.4050   18.7230  -24.3090 H     231  WAT231      0.2052
    691  O         28.2490   20.8090  -20.8690 O.3   232  WAT232     -0.4105
    692  H1        28.1880   21.4010  -20.1190 H     232  WAT232      0.2052
    693  H2        29.1890   20.7010  -21.0140 H     232  WAT232      0.2052
    694  O         21.4090   19.1450  -21.1160 O.3   233  WAT233     -0.4105
    695  H1        21.9570   18.9640  -21.8790 H     233  WAT233      0.2052
    696  H2        21.4740   18.3550  -20.5800 H     233  WAT233      0.2052
    697  O         29.3750   19.9460  -25.9630 O.3   234  WAT234     -0.4105
    698  H1        28.5920   20.4210  -25.6840 H     234  WAT234      0.2052
    699  H2        29.0810   19.0410  -26.0720 H     234  WAT234      0.2052
    700  O         25.4110   19.7930  -19.4120 O.3   235  WAT235     -0.4105
    701  H1        25.1290   20.2960  -20.1760 H     235  WAT235      0.2052
    702  H2        25.7930   18.9950  -19.7780 H     235  WAT235      0.2052
    703  O         29.0500   10.2310   28.5080 O.3   236  WAT236     -0.4105
    704  H1        28.2740    9.7510   28.7980 H     236  WAT236      0.2052
    705  H2        29.7010    9.5520   28.3330 H     236  WAT236      0.2052
    706  O         23.0470   14.5770   29.5810 O.3   237  WAT237     -0.4105
    707  H1        23.3490   13.6870   29.4020 H     237  WAT237      0.2052
    708  H2        23.7910   15.1340   29.3530 H     237  WAT237      0.2052
    709  O         21.4760    5.5030   23.1700 O.3   238  WAT238     -0.4105
    710  H1        20.5870    5.8450   23.0680 H     238  WAT238      0.2052
    711  H2        21.7600    5.3030   22.2780 H     238  WAT238      0.2052
    712  O         19.4390    8.1040   29.0540 O.3   239  WAT239     -0.4105
    713  H1        20.0110    7.3360   29.0540 H     239  WAT239      0.2052
    714  H2        19.4390    8.4030   28.1440 H     239  WAT239      0.2052
    715  O         28.4910   12.9070   28.5150 O.3   240  WAT240     -0.4105
    716  H1        28.4220   11.9660   28.3540 H     240  WAT240      0.2052
    717  H2        29.2530   12.9970   29.0870 H     240  WAT240      0.2052
    718  O         29.5210    5.7140   28.7420 O.3   241  WAT241     -0.4105
    719  H1        29.8980    4.8410   28.6290 H     241  WAT241      0.2052
    720  H2        29.4230    6.0500   27.8510 H     241  WAT241      0.2052
    721  O         23.6520    4.0870   24.2030 O.3   242  WAT242     -0.4105
    722  H1        23.7580    4.9870   24.5100 H     242  WAT242      0.2052
    723  H2        22.7410    4.0380   23.9130 H     242  WAT242      0.2052
    724  O         21.3000    6.0080   29.4490 O.3   243  WAT243     -0.4105
    725  H1        21.9810    6.2720   30.0670 H     243  WAT243      0.2052
    726  H2        20.9850    5.1690   29.7820 H     243  WAT243      0.2052
    727  O         25.4930    7.0550   28.5360 O.3   244  WAT244     -0.4105
    728  H1        26.0000    7.5530   29.1760 H     244  WAT244      0.2052
    729  H2        26.0240    6.2790   28.3600 H     244  WAT244      0.2052
    730  O         19.5320   12.4930   21.6750 O.3   245  WAT245     -0.4105
    731  H1        19.1540   12.9810   20.9440 H     245  WAT245      0.2052
    732  H2        19.7890   13.1650   22.3060 H     245  WAT245      0.2052
    733  O         27.1400    0.8940   27.1340 O.3   246  WAT246     -0.4105
    734  H1        27.4480    0.3390   26.4170 H     246  WAT246      0.2052
    735  H2        26.2110    1.0290   26.9510 H     246  WAT246      0.2052
    736  O         29.5290    8.9590   23.8700 O.3   247  WAT247     -0.4105
    737  H1        28.6010    8.8930   24.0990 H     247  WAT247      0.2052
    738  H2        29.6810    9.8970   23.7550 H     247  WAT247      0.2052
    739  O         29.5150    5.2310   20.8660 O.3   248  WAT248     -0.4105
    740  H1        28.5760    5.3920   20.9520 H     248  WAT248      0.2052
    741  H2        29.8340    5.9490   20.3200 H     248  WAT248      0.2052
    742  O         25.1340    9.4860   26.6520 O.3   249  WAT249     -0.4105
    743  H1        24.7300    8.7730   26.1560 H     249  WAT249      0.2052
    744  H2        25.2210    9.1410   27.5410 H     249  WAT249      0.2052
    745  O         25.6020   13.1720   28.8160 O.3   250  WAT250     -0.4105
    746  H1        25.3050   12.5670   28.1360 H     250  WAT250      0.2052
    747  H2        26.5520   13.2100   28.7050 H     250  WAT250      0.2052
    748  O         21.8350    8.3800   24.1520 O.3   251  WAT251     -0.4105
    749  H1        21.7140    9.1060   23.5410 H     251  WAT251      0.2052
    750  H2        21.5250    7.6100   23.6750 H     251  WAT251      0.2052
    751  O         20.7180   13.2520   26.3700 O.3   252  WAT252     -0.4105
    752  H1        20.3110   13.3930   25.5150 H     252  WAT252      0.2052
    753  H2        21.6090   12.9680   26.1670 H     252  WAT252      0.2052
    754  O         24.9900   17.4660   24.4820 O.3   253  WAT253     -0.4105
    755  H1        24.8140   16.5500   24.2690 H     253  WAT253      0.2052
    756  H2        24.1360   17.8250   24.7220 H     253  WAT253      0.2052
    757  O         24.3010    1.7240   27.5350 O.3   254  WAT254     -0.4105
    758  H1        23.8580    2.5050   27.2030 H     254  WAT254      0.2052
    759  H2        24.8600    2.0470   28.2420 H     254  WAT254      0.2052
    760  O         27.4170    1.3450   22.4150 O.3   255  WAT255     -0.4105
    761  H1        26.7920    1.3410   23.1410 H     255  WAT255      0.2052
    762  H2        27.3300    0.4780   22.0190 H     255  WAT255      0.2052
    763  O         26.3390    2.2680   29.3940 O.3   256  WAT256     -0.4105
    764  H1        26.6360    3.1750   29.3130 H     256  WAT256      0.2052
    765  H2        26.8870    1.7800   28.7800 H     256  WAT256      0.2052
    766  O         24.0920    6.8470   25.2630 O.3   257  WAT257     -0.4105
    767  H1        23.8670    6.6310   26.1680 H     257  WAT257      0.2052
    768  H2        23.3120    7.2800   24.9170 H     257  WAT257      0.2052
    769  O         18.9650    2.0800   28.1150 O.3   258  WAT258     -0.4105
    770  H1        18.6760    2.6500   28.8280 H     258  WAT258      0.2052
    771  H2        19.7100    1.6000   28.4780 H     258  WAT258      0.2052
    772  O         19.1520    6.0220   19.3260 O.3   259  WAT259     -0.4105
    773  H1        19.0700    6.9650   19.4670 H     259  WAT259      0.2052
    774  H2        18.8000    5.8790   18.4470 H     259  WAT259      0.2052
    775  O         26.9520    4.7560   28.3930 O.3   260  WAT260     -0.4105
    776  H1        26.9560    4.3150   27.5430 H     260  WAT260      0.2052
    777  H2        27.8470    5.0770   28.5000 H     260  WAT260      0.2052
    778  O         22.8020    4.6380   27.3520 O.3   261  WAT261     -0.4105
    779  H1        22.4620    5.1160   28.1090 H     261  WAT261      0.2052
    780  H2        22.0400    4.1850   26.9920 H     261  WAT261      0.2052
    781  O         27.0140    5.7570   21.3830 O.3   262  WAT262     -0.4105
    782  H1        27.1350    5.7160   22.3320 H     262  WAT262      0.2052
    783  H2        26.6290    6.6190   21.2280 H     262  WAT262      0.2052
    784  O         26.0260    8.0670   20.7820 O.3   263  WAT263     -0.4105
    785  H1        25.4580    7.6190   20.1550 H     263  WAT263      0.2052
    786  H2        26.7350    8.4260   20.2480 H     263  WAT263      0.2052
    787  O         20.1170    3.5600   26.2680 O.3   264  WAT264     -0.4105
    788  H1        19.8320    3.1960   27.1060 H     264  WAT264      0.2052
    789  H2        20.0550    2.8280   25.6550 H     264  WAT264      0.2052
    790  O         23.5710   12.0630   23.0540 O.3   265  WAT265     -0.4105
    791  H1        22.7970   11.5230   22.8940 H     265  WAT265      0.2052
    792  H2        24.3000   11.5430   22.7160 H     265  WAT265      0.2052
    793  O         29.7910    2.4530   22.9900 O.3   266  WAT266     -0.4105
    794  H1        28.9770    1.9540   22.9140 H     266  WAT266      0.2052
    795  H2        29.5970    3.2930   22.5730 H     266  WAT266      0.2052
    796  O         23.6150   11.7310   26.6920 O.3   267  WAT267     -0.4105
    797  H1        24.1320   10.9280   26.6380 H     267  WAT267      0.2052
    798  H2        23.1630   11.6690   27.5340 H     267  WAT267      0.2052
    799  O         28.5020   12.9970   21.9650 O.3   268  WAT268     -0.4105
    800  H1        28.8430   13.7420   21.4690 H     268  WAT268      0.2052
    801  H2        27.6730   13.3110   22.3270 H     268  WAT268      0.2052
    802  O         27.4710   13.0790   24.7360 O.3   269  WAT269     -0.4105
    803  H1        28.1580   13.6260   25.1170 H     269  WAT269      0.2052
    804  H2        26.6840   13.6230   24.7710 H     269  WAT269      0.2052
    805  O         19.6100    8.6960   20.2280 O.3   270  WAT270     -0.4105
    806  H1        20.4790    8.9790   20.5120 H     270  WAT270      0.2052
    807  H2        19.1190    9.5100   20.1130 H     270  WAT270      0.2052
    808  O         26.7730   10.0830   24.3490 O.3   271  WAT271     -0.4105
    809  H1        27.2300   10.8940   24.5750 H     271  WAT271      0.2052
    810  H2        26.4220    9.7660   25.1810 H     271  WAT271      0.2052
    811  O         22.6750    0.4270   24.8210 O.3   272  WAT272     -0.4105
    812  H1        22.5460    0.4190   25.7700 H     272  WAT272      0.2052
    813  H2        21.8510    0.7650   24.4700 H     272  WAT272      0.2052
    814  O         19.9770   17.9090   20.7940 O.3   273  WAT273     -0.4105
    815  H1        20.3370   18.5080   20.1400 H     273  WAT273      0.2052
    816  H2        19.8360   18.4550   21.5680 H     273  WAT273      0.2052
    817  O         25.9940   15.2920   21.6120 O.3   274  WAT274     -0.4105
    818  H1        25.9850   16.0250   20.9960 H     274  WAT274      0.2052
    819  H2        25.0740   15.0450   21.7040 H     274  WAT274      0.2052
    820  O         21.5950   10.5130   22.3560 O.3   275  WAT275     -0.4105
    821  H1        20.9870   11.2530   22.3660 H     275  WAT275      0.2052
    822  H2        22.0690   10.6030   21.5300 H     275  WAT275      0.2052
    823  O         28.9800   15.3550   20.2740 O.3   276  WAT276     -0.4105
    824  H1        29.0810   15.1510   19.3440 H     276  WAT276      0.2052
    825  H2        28.0800   15.1010   20.4790 H     276  WAT276      0.2052
    826  O         26.5020    5.9130   24.2570 O.3   277  WAT277     -0.4105
    827  H1        25.7940    6.3810   24.6980 H     277  WAT277      0.2052
    828  H2        26.7870    5.2550   24.8910 H     277  WAT277      0.2052
    829  O         27.6220   17.8730   24.9690 O.3   278  WAT278     -0.4105
    830  H1        27.8760   17.8360   24.0470 H     278  WAT278      0.2052
    831  H2        26.6730   17.7470   24.9620 H     278  WAT278      0.2052
    832  O         24.7060    4.2210   21.6320 O.3   279  WAT279     -0.4105
    833  H1        25.5550    4.6580   21.5660 H     279  WAT279      0.2052
    834  H2        24.3390    4.5330   22.4590 H     279  WAT279      0.2052
    835  O         23.6050   10.4750   20.1050 O.3   280  WAT280     -0.4105
    836  H1        24.3710   10.3630   20.6680 H     280  WAT280      0.2052
    837  H2        23.6830    9.7780   19.4530 H     280  WAT280      0.2052
    838  O         22.3000    7.9070   20.7890 O.3   281  WAT281     -0.4105
    839  H1        22.3800    6.9600   20.9000 H     281  WAT281      0.2052
    840  H2        23.1920    8.2380   20.8950 H     281  WAT281      0.2052
    841  O         23.1010   18.0570   27.8920 O.3   282  WAT282     -0.4105
    842  H1        23.8370   17.5080   28.1630 H     282  WAT282      0.2052
    843  H2        23.4850   18.9220   27.7530 H     282  WAT282      0.2052
    844  O         19.9860   14.1240   23.7660 O.3   283  WAT283     -0.4105
    845  H1        19.0600   14.3660   23.7570 H     283  WAT283      0.2052
    846  H2        20.4510   14.9510   23.6450 H     283  WAT283      0.2052
    847  O         26.2110   17.2300   19.7150 O.3   284  WAT284     -0.4105
    848  H1        27.0040   17.5190   19.2630 H     284  WAT284      0.2052
    849  H2        25.6920   16.7990   19.0360 H     284  WAT284      0.2052
    850  O         26.7290   12.4500   19.5790 O.3   285  WAT285     -0.4105
    851  H1        26.6240   11.8350   20.3050 H     285  WAT285      0.2052
    852  H2        26.5620   11.9270   18.7950 H     285  WAT285      0.2052
    853  O         25.6370   10.4710   22.0790 O.3   286  WAT286     -0.4105
    854  H1        26.0590   10.3050   22.9230 H     286  WAT286      0.2052
    855  H2        25.7620    9.6610   21.5850 H     286  WAT286      0.2052
    856  O         28.1500    9.4950   19.3270 O.3   287  WAT287     -0.4105
    857  H1        28.6700    8.7800   18.9610 H     287  WAT287      0.2052
    858  H2        28.7970   10.1330   19.6270 H     287  WAT287      0.2052
    859  O         24.5330    6.5440   19.0250 O.3   288  WAT288     -0.4105
    860  H1        24.3320    5.6810   19.3870 H     288  WAT288      0.2052
    861  H2        24.3620    6.4580   18.0870 H     288  WAT288      0.2052
    862  O         23.3310    3.6440   19.0130 O.3   289  WAT289     -0.4105
    863  H1        23.6340    3.6510   18.1050 H     289  WAT289      0.2052
    864  H2        24.0710    3.2940   19.5100 H     289  WAT289      0.2052
    865  O         26.5500    2.5880   19.9990 O.3   290  WAT290     -0.4105
    866  H1        26.2020    1.9100   19.4190 H     290  WAT290      0.2052
    867  H2        26.7510    2.1270   20.8130 H     290  WAT290      0.2052
    868  O         28.7150   17.5760   21.6170 O.3   291  WAT291     -0.4105
    869  H1        29.6100   17.9140   21.6390 H     291  WAT291      0.2052
    870  H2        28.7460   16.8540   20.9900 H     291  WAT291      0.2052
    871  O         22.3540   12.9490   19.8460 O.3   292  WAT292     -0.4105
    872  H1        22.7920   13.4920   20.5020 H     292  WAT292      0.2052
    873  H2        22.8390   12.1230   19.8560 H     292  WAT292      0.2052
    874  O         19.5690   15.7380   27.2980 O.3   293  WAT293     -0.4105
    875  H1        19.8990   14.8700   27.0660 H     293  WAT293      0.2052
    876  H2        19.9980   15.9430   28.1290 H     293  WAT293      0.2052
    877  O         24.1650   14.0680   24.9580 O.3   294  WAT294     -0.4105
    878  H1        23.8640   13.9450   25.8590 H     294  WAT294      0.2052
    879  H2        24.0590   13.2090   24.5500 H     294  WAT294      0.2052
    880  O         19.8900    9.1170   26.3950 O.3   295  WAT295     -0.4105
    881  H1        19.2350    8.8480   25.7510 H     295  WAT295      0.2052
    882  H2        20.7280    9.0070   25.9450 H     295  WAT295      0.2052
    883  O         19.1040    6.3270   22.3380 O.3   296  WAT296     -0.4105
    884  H1        18.2000    6.5900   22.1630 H     296  WAT296      0.2052
    885  H2        19.5880    6.5980   21.5580 H     296  WAT296      0.2052
    886  O         21.6470    5.3830   20.2470 O.3   297  WAT297     -0.4105
    887  H1        22.3560    4.9610   19.7620 H     297  WAT297      0.2052
    888  H2        20.9310    5.4510   19.6150 H     297  WAT297      0.2052
    889  O         21.2940    1.4370   19.2870 O.3   298  WAT298     -0.4105
    890  H1        22.0170    1.9780   19.6060 H     298  WAT298      0.2052
    891  H2        21.5670    1.1630   18.4120 H     298  WAT298      0.2052
    892  O         20.9830    0.6880   29.1900 O.3   299  WAT299     -0.4105
    893  H1        21.6310    0.1370   28.7490 H     299  WAT299      0.2052
    894  H2        21.4040    0.9420   30.0110 H     299  WAT299      0.2052
    895  O         25.4180   16.5420   28.9530 O.3   300  WAT300     -0.4105
    896  H1        25.9340   15.9300   28.4280 H     300  WAT300      0.2052
    897  H2        26.0670   17.0450   29.4440 H     300  WAT300      0.2052
    898  O         20.0960   17.6450   25.3780 O.3   301  WAT301     -0.4105
    899  H1        19.9280   17.0120   26.0760 H     301  WAT301      0.2052
    900  H2        19.2290   17.8510   25.0270 H     301  WAT301      0.2052
    901  O         20.7190    1.4760   22.8810 O.3   302  WAT302     -0.4105
    902  H1        21.4770    1.5890   22.3070 H     302  WAT302      0.2052
    903  H2        20.2570    2.3130   22.8350 H     302  WAT302      0.2052
    904  O         27.2600    3.5900   25.8710 O.3   303  WAT303     -0.4105
    905  H1        26.4480    3.2160   25.5310 H     303  WAT303      0.2052
    906  H2        27.7640    2.8350   26.1730 H     303  WAT303      0.2052
    907  O         21.7020   16.3380   22.8230 O.3   304  WAT304     -0.4105
    908  H1        21.1770   16.7190   22.1190 H     304  WAT304      0.2052
    909  H2        21.6270   16.9630   23.5440 H     304  WAT304      0.2052
    910  O         23.0910    2.0030   21.4210 O.3   305  WAT305     -0.4105
    911  H1        23.6210    1.2160   21.2920 H     305  WAT305      0.2052
    912  H2        23.7240    2.6820   21.6550 H     305  WAT305      0.2052
    913  O         25.2850    1.7400   24.4760 O.3   306  WAT306     -0.4105
    914  H1        24.6550    1.0390   24.6430 H     306  WAT306      0.2052
    915  H2        24.7460    2.5010   24.2590 H     306  WAT306      0.2052
    916  O         24.3020   18.2860   21.6980 O.3   307  WAT307     -0.4105
    917  H1        25.0330   18.0020   21.1500 H     307  WAT307      0.2052
    918  H2        24.5610   18.0480   22.5880 H     307  WAT307      0.2052
    919  O         23.4630   14.4030   21.7020 O.3   308  WAT308     -0.4105
    920  H1        22.8340   14.8710   22.2510 H     308  WAT308      0.2052
    921  H2        23.5780   13.5580   22.1370 H     308  WAT308      0.2052
    922  O         29.0500   10.2310    9.7330 O.3   309  WAT309     -0.4105
    923  H1        28.2740    9.7510   10.0230 H     309  WAT309      0.2052
    924  H2        29.7010    9.5520    9.5590 H     309  WAT309      0.2052
    925  O         23.0660   10.5430   10.6110 O.3   310  WAT310     -0.4105
    926  H1        22.2350   10.2880   11.0110 H     310  WAT310      0.2052
    927  H2        23.6750   10.6140   11.3470 H     310  WAT310      0.2052
    928  O         23.0470   14.5770   10.8070 O.3   311  WAT311     -0.4105
    929  H1        23.3490   13.6870   10.6280 H     311  WAT311      0.2052
    930  H2        23.7910   15.1340   10.5790 H     311  WAT311      0.2052
    931  O         21.4760    5.5030    4.3950 O.3   312  WAT312     -0.4105
    932  H1        20.5870    5.8450    4.2930 H     312  WAT312      0.2052
    933  H2        21.7600    5.3030    3.5030 H     312  WAT312      0.2052
    934  O         19.4390    8.1040   10.2790 O.3   313  WAT313     -0.4105
    935  H1        20.0110    7.3360   10.2800 H     313  WAT313      0.2052
    936  H2        19.4390    8.4030    9.3700 H     313  WAT313      0.2052
    937  O         28.4910   12.9070    9.7400 O.3   314  WAT314     -0.4105
    938  H1        28.4220   11.9660    9.5790 H     314  WAT314      0.2052
    939  H2        29.2530   12.9970   10.3130 H     314  WAT314      0.2052
    940  O         20.6810    3.5120   12.0660 O.3   315  WAT315     -0.4105
    941  H1        20.5020    2.6150   12.3460 H     315  WAT315      0.2052
    942  H2        20.2790    4.0600   12.7410 H     315  WAT315      0.2052
    943  O         29.5210    5.7140    9.9670 O.3   316  WAT316     -0.4105
    944  H1        29.8980    4.8410    9.8550 H     316  WAT316      0.2052
    945  H2        29.4230    6.0500    9.0760 H     316  WAT316      0.2052
    946  O         23.6520    4.0870    5.4290 O.3   317  WAT317     -0.4105
    947  H1        23.7580    4.9870    5.7360 H     317  WAT317      0.2052
    948  H2        22.7410    4.0380    5.1380 H     317  WAT317      0.2052
    949  O         21.3000    6.0080   10.6740 O.3   318  WAT318     -0.4105
    950  H1        21.9810    6.2720   11.2930 H     318  WAT318      0.2052
    951  H2        20.9850    5.1690   11.0080 H     318  WAT318      0.2052
    952  O         25.4930    7.0550    9.7620 O.3   319  WAT319     -0.4105
    953  H1        26.0000    7.5530   10.4020 H     319  WAT319      0.2052
    954  H2        26.0240    6.2790    9.5850 H     319  WAT319      0.2052
    955  O         23.7760    1.6950   14.0280 O.3   320  WAT320     -0.4105
    956  H1        23.7780    2.2120   13.2220 H     320  WAT320      0.2052
    957  H2        22.9470    1.2180   14.0050 H     320  WAT320      0.2052
    958  O         25.0260   11.3350   12.2050 O.3   321  WAT321     -0.4105
    959  H1        24.6930   11.9610   12.8470 H     321  WAT321      0.2052
    960  H2        25.2030   11.8610   11.4250 H     321  WAT321      0.2052
    961  O         23.4580    3.4060   12.0350 O.3   322  WAT322     -0.4105
    962  H1        23.7990    4.2500   11.7400 H     322  WAT322      0.2052
    963  H2        22.5190    3.5540   12.1510 H     322  WAT322      0.2052
    964  O         24.2380   13.3030   14.0200 O.3   323  WAT323     -0.4105
    965  H1        24.8560   13.9780   13.7390 H     323  WAT323      0.2052
    966  H2        23.3780   13.7110   13.9290 H     323  WAT323      0.2052
    967  O         19.5320   12.4930    2.9010 O.3   324  WAT324     -0.4105
    968  H1        19.1540   12.9810    2.1690 H     324  WAT324      0.2052
    969  H2        19.7890   13.1650    3.5310 H     324  WAT324      0.2052
    970  O         27.1400    0.8940    8.3590 O.3   325  WAT325     -0.4105
    971  H1        27.4480    0.3390    7.6430 H     325  WAT325      0.2052
    972  H2        26.2110    1.0290    8.1770 H     325  WAT325      0.2052
    973  O         29.5290    8.9590    5.0950 O.3   326  WAT326     -0.4105
    974  H1        28.6010    8.8930    5.3240 H     326  WAT326      0.2052
    975  H2        29.6810    9.8970    4.9810 H     326  WAT326      0.2052
    976  O         29.5150    5.2310    2.0920 O.3   327  WAT327     -0.4105
    977  H1        28.5760    5.3920    2.1770 H     327  WAT327      0.2052
    978  H2        29.8340    5.9490    1.5460 H     327  WAT327      0.2052
    979  O         25.1340    9.4860    7.8770 O.3   328  WAT328     -0.4105
    980  H1        24.7300    8.7730    7.3820 H     328  WAT328      0.2052
    981  H2        25.2210    9.1410    8.7660 H     328  WAT328      0.2052
    982  O         25.6020   13.1720   10.0410 O.3   329  WAT329     -0.4105
    983  H1        25.3050   12.5670    9.3620 H     329  WAT329      0.2052
    984  H2        26.5520   13.2100    9.9300 H     329  WAT329      0.2052
    985  O         23.8470    6.2600   11.6570 O.3   330  WAT330     -0.4105
    986  H1        24.3990    6.3690   10.8830 H     330  WAT330      0.2052
    987  H2        24.3610    6.6340   12.3730 H     330  WAT330      0.2052
    988  O         24.6940   12.9110   16.6920 O.3   331  WAT331     -0.4105
    989  H1        23.7970   13.1350   16.9390 H     331  WAT331      0.2052
    990  H2        24.7200   13.0340   15.7430 H     331  WAT331      0.2052
    991  O         23.5210    9.7820   15.2680 O.3   332  WAT332     -0.4105
    992  H1        23.3820   10.6540   15.6370 H     332  WAT332      0.2052
    993  H2        22.6390    9.4390   15.1230 H     332  WAT332      0.2052
    994  O         25.3190   15.7240   17.4760 O.3   333  WAT333     -0.4105
    995  H1        25.2910   16.1280   16.6090 H     333  WAT333      0.2052
    996  H2        25.1560   14.7950   17.3130 H     333  WAT333      0.2052
    997  O         21.8350    8.3800    5.3780 O.3   334  WAT334     -0.4105
    998  H1        21.7140    9.1060    4.7660 H     334  WAT334      0.2052
    999  H2        21.5250    7.6100    4.9010 H     334  WAT334      0.2052
   1000  O         19.4730   11.5520   11.1850 O.3   335  WAT335     -0.4105
   1001  H1        19.5510   11.6860   10.2400 H     335  WAT335      0.2052
   1002  H2        20.0870   10.8430   11.3780 H     335  WAT335      0.2052
   1003  O         20.7180   13.2520    7.5960 O.3   336  WAT336     -0.4105
   1004  H1        20.3110   13.3930    6.7410 H     336  WAT336      0.2052
   1005  H2        21.6090   12.9680    7.3930 H     336  WAT336      0.2052
   1006  O         24.9900   17.4660    5.7080 O.3   337  WAT337     -0.4105
   1007  H1        24.8140   16.5500    5.4950 H     337  WAT337      0.2052
   1008  H2        24.1360   17.8250    5.9480 H     337  WAT337      0.2052
   1009  O         19.5290   12.5930   13.7240 O.3   338  WAT338     -0.4105
   1010  H1        19.6920   12.1240   12.9060 H     338  WAT338      0.2052
   1011  H2        19.9940   12.0850   14.3890 H     338  WAT338      0.2052
   1012  O         24.3010    1.7240    8.7600 O.3   339  WAT339     -0.4105
   1013  H1        23.8580    2.5050    8.4290 H     339  WAT339      0.2052
   1014  H2        24.8600    2.0470    9.4680 H     339  WAT339      0.2052
   1015  O         28.5880    4.5900   14.3640 O.3   340  WAT340     -0.4105
   1016  H1        28.1260    4.7990   15.1760 H     340  WAT340      0.2052
   1017  H2        28.1860    3.7760   14.0610 H     340  WAT340      0.2052
   1018  O         27.4170    1.3450    3.6410 O.3   341  WAT341     -0.4105
   1019  H1        26.7920    1.3410    4.3660 H     341  WAT341      0.2052
   1020  H2        27.3300    0.4780    3.2450 H     341  WAT341      0.2052
   1021  O         26.3390    2.2680   10.6190 O.3   342  WAT342     -0.4105
   1022  H1        26.6360    3.1750   10.5390 H     342  WAT342      0.2052
   1023  H2        26.8870    1.7800   10.0050 H     342  WAT342      0.2052
   1024  O         24.0920    6.8470    6.4890 O.3   343  WAT343     -0.4105
   1025  H1        23.8670    6.6310    7.3930 H     343  WAT343      0.2052
   1026  H2        23.3120    7.2800    6.1430 H     343  WAT343      0.2052
   1027  O         26.5320    7.7460   17.1550 O.3   344  WAT344     -0.4105
   1028  H1        26.4370    6.8050   17.0050 H     344  WAT344      0.2052
   1029  H2        27.3760    7.9670   16.7590 H     344  WAT344      0.2052
   1030  O         21.6630    4.1570   15.3080 O.3   345  WAT345     -0.4105
   1031  H1        21.2700    5.0040   15.5150 H     345  WAT345      0.2052
   1032  H2        20.9750    3.5200   15.4990 H     345  WAT345      0.2052
   1033  O         28.2380    4.2400   18.3780 O.3   346  WAT346     -0.4105
   1034  H1        27.5480    4.0480   19.0120 H     346  WAT346      0.2052
   1035  H2        28.9810    4.5240   18.9100 H     346  WAT346      0.2052
   1036  O         18.9650    2.0800    9.3410 O.3   347  WAT347     -0.4105
   1037  H1        18.6760    2.6500   10.0530 H     347  WAT347      0.2052
   1038  H2        19.7100    1.6000    9.7040 H     347  WAT347      0.2052
   1039  O         19.1520    6.0220    0.5510 O.3   348  WAT348     -0.4105
   1040  H1        19.0700    6.9650    0.6930 H     348  WAT348      0.2052
   1041  H2        18.8000    5.8790   -0.3280 H     348  WAT348      0.2052
   1042  O         26.9520    4.7560    9.6180 O.3   349  WAT349     -0.4105
   1043  H1        26.9560    4.3150    8.7690 H     349  WAT349      0.2052
   1044  H2        27.8470    5.0770    9.7250 H     349  WAT349      0.2052
   1045  O         22.8020    4.6380    8.5780 O.3   350  WAT350     -0.4105
   1046  H1        22.4620    5.1160    9.3340 H     350  WAT350      0.2052
   1047  H2        22.0400    4.1850    8.2180 H     350  WAT350      0.2052
   1048  O         27.0140    5.7570    2.6090 O.3   351  WAT351     -0.4105
   1049  H1        27.1350    5.7160    3.5580 H     351  WAT351      0.2052
   1050  H2        26.6290    6.6190    2.4540 H     351  WAT351      0.2052
   1051  O         26.0260    8.0670    2.0070 O.3   352  WAT352     -0.4105
   1052  H1        25.4580    7.6190    1.3810 H     352  WAT352      0.2052
   1053  H2        26.7350    8.4260    1.4740 H     352  WAT352      0.2052
   1054  O         21.1030   11.9680   15.8840 O.3   353  WAT353     -0.4105
   1055  H1        20.7190   11.3280   16.4820 H     353  WAT353      0.2052
   1056  H2        21.4140   12.6720   16.4530 H     353  WAT353      0.2052
   1057  O         27.2530    8.8160   11.3650 O.3   354  WAT354     -0.4105
   1058  H1        27.6200    8.3420   12.1110 H     354  WAT354      0.2052
   1059  H2        27.0630    9.6900   11.7060 H     354  WAT354      0.2052
   1060  O         20.1170    3.5600    7.4940 O.3   355  WAT355     -0.4105
   1061  H1        19.8320    3.1960    8.3320 H     355  WAT355      0.2052
   1062  H2        20.0550    2.8280    6.8800 H     355  WAT355      0.2052
   1063  O         25.0430    7.8570   13.6830 O.3   356  WAT356     -0.4105
   1064  H1        24.7380    8.7360   13.9080 H     356  WAT356      0.2052
   1065  H2        25.9970    7.9170   13.7190 H     356  WAT356      0.2052
   1066  O         23.5710   12.0630    4.2800 O.3   357  WAT357     -0.4105
   1067  H1        22.7970   11.5230    4.1200 H     357  WAT357      0.2052
   1068  H2        24.3000   11.5430    3.9420 H     357  WAT357      0.2052
   1069  O         29.7910    2.4530    4.2150 O.3   358  WAT358     -0.4105
   1070  H1        28.9770    1.9540    4.1400 H     358  WAT358      0.2052
   1071  H2        29.5970    3.2930    3.7990 H     358  WAT358      0.2052
   1072  O         29.7120   11.1300   15.9590 O.3   359  WAT359     -0.4105
   1073  H1        29.6450   10.2100   15.7050 H     359  WAT359      0.2052
   1074  H2        29.0820   11.2280   16.6740 H     359  WAT359      0.2052
   1075  O         23.6150   11.7310    7.9180 O.3   360  WAT360     -0.4105
   1076  H1        24.1320   10.9280    7.8630 H     360  WAT360      0.2052
   1077  H2        23.1630   11.6690    8.7590 H     360  WAT360      0.2052
   1078  O         28.5020   12.9970    3.1910 O.3   361  WAT361     -0.4105
   1079  H1        28.8430   13.7420    2.6950 H     361  WAT361      0.2052
   1080  H2        27.6730   13.3110    3.5530 H     361  WAT361      0.2052
   1081  O         21.0990    8.6970   14.8300 O.3   362  WAT362     -0.4105
   1082  H1        20.7410    9.3620   15.4180 H     362  WAT362      0.2052
   1083  H2        20.8050    7.8650   15.2020 H     362  WAT362      0.2052
   1084  O         24.3000    9.1550   17.7140 O.3   363  WAT363     -0.4105
   1085  H1        24.0000    9.3010   16.8170 H     363  WAT363      0.2052
   1086  H2        25.0720    8.5960   17.6220 H     363  WAT363      0.2052
   1087  O         29.6430   13.9520   15.7100 O.3   364  WAT364     -0.4105
   1088  H1        29.6580   13.0200   15.4920 H     364  WAT364      0.2052
   1089  H2        28.9360   14.0380   16.3490 H     364  WAT364      0.2052
   1090  O         27.4710   13.0790    5.9620 O.3   365  WAT365     -0.4105
   1091  H1        28.1580   13.6260    6.3430 H     365  WAT365      0.2052
   1092  H2        26.6840   13.6230    5.9970 H     365  WAT365      0.2052
   1093  O         19.6100    8.6960    1.4540 O.3   366  WAT366     -0.4105
   1094  H1        20.4790    8.9790    1.7370 H     366  WAT366      0.2052
   1095  H2        19.1190    9.5100    1.3390 H     366  WAT366      0.2052
   1096  O         26.7730   10.0830    5.5750 O.3   367  WAT367     -0.4105
   1097  H1        27.2300   10.8940    5.8010 H     367  WAT367      0.2052
   1098  H2        26.4220    9.7660    6.4060 H     367  WAT367      0.2052
   1099  O         29.0770   15.5940   12.8040 O.3   368  WAT368     -0.4105
   1100  H1        29.7210   15.8000   13.4810 H     368  WAT368      0.2052
   1101  H2        29.4400   14.8330   12.3510 H     368  WAT368      0.2052
   1102  O         22.6750    0.4270    6.0470 O.3   369  WAT369     -0.4105
   1103  H1        22.5460    0.4190    6.9950 H     369  WAT369      0.2052
   1104  H2        21.8510    0.7650    5.6960 H     369  WAT369      0.2052
   1105  O         19.9770   17.9090    2.0200 O.3   370  WAT370     -0.4105
   1106  H1        20.3370   18.5080    1.3660 H     370  WAT370      0.2052
   1107  H2        19.8360   18.4550    2.7930 H     370  WAT370      0.2052
   1108  O         19.6740    2.1860   15.5080 O.3   371  WAT371     -0.4105
   1109  H1        18.9600    2.3860   16.1130 H     371  WAT371      0.2052
   1110  H2        20.0930    1.4100   15.8790 H     371  WAT371      0.2052
   1111  O         19.9610   16.1740   16.4940 O.3   372  WAT372     -0.4105
   1112  H1        20.0700   15.2340   16.3540 H     372  WAT372      0.2052
   1113  H2        19.3090   16.4400   15.8460 H     372  WAT372      0.2052
   1114  O         27.9520   14.4460   17.8940 O.3   373  WAT373     -0.4105
   1115  H1        27.6320   13.7270   18.4390 H     373  WAT373      0.2052
   1116  H2        27.2780   15.1210   17.9680 H     373  WAT373      0.2052
   1117  O         25.9940   15.2920    2.8370 O.3   374  WAT374     -0.4105
   1118  H1        25.9850   16.0250    2.2220 H     374  WAT374      0.2052
   1119  H2        25.0740   15.0450    2.9300 H     374  WAT374      0.2052
   1120  O         21.5950   10.5130    3.5820 O.3   375  WAT375     -0.4105
   1121  H1        20.9870   11.2530    3.5920 H     375  WAT375      0.2052
   1122  H2        22.0690   10.6030    2.7560 H     375  WAT375      0.2052
   1123  O         28.9800   15.3550    1.5000 O.3   376  WAT376     -0.4105
   1124  H1        29.0810   15.1510    0.5700 H     376  WAT376      0.2052
   1125  H2        28.0800   15.1010    1.7050 H     376  WAT376      0.2052
   1126  O         26.5020    5.9130    5.4820 O.3   377  WAT377     -0.4105
   1127  H1        25.7940    6.3810    5.9240 H     377  WAT377      0.2052
   1128  H2        26.7870    5.2550    6.1170 H     377  WAT377      0.2052
   1129  O         28.1280    7.3320   13.4820 O.3   378  WAT378     -0.4105
   1130  H1        28.6270    7.8070   14.1470 H     378  WAT378      0.2052
   1131  H2        28.2700    6.4090   13.6890 H     378  WAT378      0.2052
   1132  O         27.6220   17.8730    6.1950 O.3   379  WAT379     -0.4105
   1133  H1        27.8760   17.8360    5.2730 H     379  WAT379      0.2052
   1134  H2        26.6730   17.7470    6.1870 H     379  WAT379      0.2052
   1135  O         24.7060    4.2210    2.8570 O.3   380  WAT380     -0.4105
   1136  H1        25.5550    4.6580    2.7910 H     380  WAT380      0.2052
   1137  H2        24.3390    4.5330    3.6850 H     380  WAT380      0.2052
   1138  O         23.6050   10.4750    1.3310 O.3   381  WAT381     -0.4105
   1139  H1        24.3710   10.3630    1.8930 H     381  WAT381      0.2052
   1140  H2        23.6830    9.7780    0.6790 H     381  WAT381      0.2052
   1141  O         22.3000    7.9070    2.0140 O.3   382  WAT382     -0.4105
   1142  H1        22.3800    6.9600    2.1260 H     382  WAT382      0.2052
   1143  H2        23.1920    8.2380    2.1200 H     382  WAT382      0.2052
   1144  O         23.1010   18.0570    9.1180 O.3   383  WAT383     -0.4105
   1145  H1        23.8370   17.5080    9.3880 H     383  WAT383      0.2052
   1146  H2        23.4850   18.9220    8.9780 H     383  WAT383      0.2052
   1147  O         19.9860   14.1240    4.9920 O.3   384  WAT384     -0.4105
   1148  H1        19.0600   14.3660    4.9820 H     384  WAT384      0.2052
   1149  H2        20.4510   14.9510    4.8700 H     384  WAT384      0.2052
   1150  O         22.1070   17.2410   18.3060 O.3   385  WAT385     -0.4105
   1151  H1        22.9080   17.5620   18.7200 H     385  WAT385      0.2052
   1152  H2        21.5920   16.8810   19.0280 H     385  WAT385      0.2052
   1153  O         26.2110   17.2300    0.9400 O.3   386  WAT386     -0.4105
   1154  H1        27.0040   17.5190    0.4880 H     386  WAT386      0.2052
   1155  H2        25.6920   16.7990    0.2610 H     386  WAT386      0.2052
   1156  O         19.8270    9.7290   17.2500 O.3   387  WAT387     -0.4105
   1157  H1        20.3310    9.1490   17.8210 H     387  WAT387      0.2052
   1158  H2        19.0880   10.0130   17.7870 H     387  WAT387      0.2052
   1159  O         26.7290   12.4500    0.8040 O.3   388  WAT388     -0.4105
   1160  H1        26.6240   11.8350    1.5310 H     388  WAT388      0.2052
   1161  H2        26.5620   11.9270    0.0210 H     388  WAT388      0.2052
   1162  O         26.8810   11.1360   16.7830 O.3   389  WAT389     -0.4105
   1163  H1        26.1150   11.7040   16.6990 H     389  WAT389      0.2052
   1164  H2        27.0620   10.8430   15.8900 H     389  WAT389      0.2052
   1165  O         21.8590    7.8720   18.1450 O.3   390  WAT390     -0.4105
   1166  H1        21.9000    7.5730   19.0530 H     390  WAT390      0.2052
   1167  H2        22.7140    8.2720   17.9860 H     390  WAT390      0.2052
   1168  O         25.6370   10.4710    3.3050 O.3   391  WAT391     -0.4105
   1169  H1        26.0590   10.3050    4.1480 H     391  WAT391      0.2052
   1170  H2        25.7620    9.6610    2.8110 H     391  WAT391      0.2052
   1171  O         23.8000    6.4510   16.1120 O.3   392  WAT392     -0.4105
   1172  H1        23.2690    5.9600   15.4850 H     392  WAT392      0.2052
   1173  H2        24.4690    6.8790   15.5780 H     392  WAT392      0.2052
   1174  O         28.1500    9.4950    0.5530 O.3   393  WAT393     -0.4105
   1175  H1        28.6700    8.7800    0.1870 H     393  WAT393      0.2052
   1176  H2        28.7970   10.1330    0.8530 H     393  WAT393      0.2052
   1177  O         24.2870    3.4170   16.1920 O.3   394  WAT394     -0.4105
   1178  H1        24.1930    2.7990   15.4670 H     394  WAT394      0.2052
   1179  H2        23.7070    4.1440   15.9650 H     394  WAT394      0.2052
   1180  O         27.0530    1.9740   13.2250 O.3   395  WAT395     -0.4105
   1181  H1        26.6050    1.9970   12.3790 H     395  WAT395      0.2052
   1182  H2        26.4200    1.5760   13.8220 H     395  WAT395      0.2052
   1183  O         27.4590   10.8700   13.8460 O.3   396  WAT396     -0.4105
   1184  H1        27.8780   11.7130   13.6740 H     396  WAT396      0.2052
   1185  H2        26.5400   11.0070   13.6170 H     396  WAT396      0.2052
   1186  O         24.5330    6.5440    0.2510 O.3   397  WAT397     -0.4105
   1187  H1        24.3320    5.6810    0.6120 H     397  WAT397      0.2052
   1188  H2        24.3620    6.4580   -0.6870 H     397  WAT397      0.2052
   1189  O         25.3100   17.1750   14.9620 O.3   398  WAT398     -0.4105
   1190  H1        24.7720   17.9000   14.6430 H     398  WAT398      0.2052
   1191  H2        25.5630   16.6980   14.1710 H     398  WAT398      0.2052
   1192  O         26.5620    5.1430   16.4870 O.3   399  WAT399     -0.4105
   1193  H1        27.1520    4.8350   17.1750 H     399  WAT399      0.2052
   1194  H2        25.7440    4.6710   16.6430 H     399  WAT399      0.2052
   1195  O         23.3310    3.6440    0.2390 O.3   400  WAT400     -0.4105
   1196  H1        23.6340    3.6510   -0.6690 H     400  WAT400      0.2052
   1197  H2        24.0710    3.2940    0.7360 H     400  WAT400      0.2052
   1198  O         28.1660   18.4100   15.2200 O.3   401  WAT401     -0.4105
   1199  H1        28.0920   19.3140   15.5280 H     401  WAT401      0.2052
   1200  H2        27.2640   18.0910   15.1930 H     401  WAT401      0.2052
   1201  O         26.5500    2.5880    1.2240 O.3   402  WAT402     -0.4105
   1202  H1        26.2020    1.9100    0.6450 H     402  WAT402      0.2052
   1203  H2        26.7510    2.1270    2.0390 H     402  WAT402      0.2052
   1204  O         28.7150   17.5760    2.8430 O.3   403  WAT403     -0.4105
   1205  H1        29.6100   17.9140    2.8650 H     403  WAT403      0.2052
   1206  H2        28.7460   16.8540    2.2150 H     403  WAT403      0.2052
   1207  O         22.3540   12.9490    1.0720 O.3   404  WAT404     -0.4105
   1208  H1        22.7920   13.4920    1.7270 H     404  WAT404      0.2052
   1209  H2        22.8390   12.1230    1.0810 H     404  WAT404      0.2052
   1210  O         19.5690   15.7380    8.5240 O.3   405  WAT405     -0.4105
   1211  H1        19.8990   14.8700    8.2920 H     405  WAT405      0.2052
   1212  H2        19.9980   15.9430    9.3540 H     405  WAT405      0.2052
   1213  O         24.1650   14.0680    6.1840 O.3   406  WAT406     -0.4105
   1214  H1        23.8640   13.9450    7.0840 H     406  WAT406      0.2052
   1215  H2        24.0590   13.2090    5.7760 H     406  WAT406      0.2052
   1216  O         20.0580   16.6050   11.2620 O.3   407  WAT407     -0.4105
   1217  H1        19.6210   16.7850   12.0940 H     407  WAT407      0.2052
   1218  H2        20.6260   17.3620   11.1200 H     407  WAT407      0.2052
   1219  O         19.8900    9.1170    7.6210 O.3   408  WAT408     -0.4105
   1220  H1        19.2350    8.8480    6.9770 H     408  WAT408      0.2052
   1221  H2        20.7280    9.0070    7.1710 H     408  WAT408      0.2052
   1222  O         20.9280    9.5020   12.1610 O.3   409  WAT409     -0.4105
   1223  H1        21.2950    9.4150   13.0410 H     409  WAT409      0.2052
   1224  H2        20.3590    8.7390   12.0620 H     409  WAT409      0.2052
   1225  O         20.4790    6.4130   16.0670 O.3   410  WAT410     -0.4105
   1226  H1        19.5850    6.3800   16.4060 H     410  WAT410      0.2052
   1227  H2        21.0190    6.6120   16.8320 H     410  WAT410      0.2052
   1228  O         19.1040    6.3270    3.5630 O.3   411  WAT411     -0.4105
   1229  H1        18.2000    6.5900    3.3890 H     411  WAT411      0.2052
   1230  H2        19.5880    6.5980    2.7830 H     411  WAT411      0.2052
   1231  O         21.6470    5.3830    1.4730 O.3   412  WAT412     -0.4105
   1232  H1        22.3560    4.9610    0.9880 H     412  WAT412      0.2052
   1233  H2        20.9310    5.4510    0.8410 H     412  WAT412      0.2052
   1234  O         21.2940    1.4370    0.5130 O.3   413  WAT413     -0.4105
   1235  H1        22.0170    1.9780    0.8310 H     413  WAT413      0.2052
   1236  H2        21.5670    1.1630   -0.3630 H     413  WAT413      0.2052
   1237  O         20.9830    0.6880   10.4150 O.3   414  WAT414     -0.4105
   1238  H1        21.6310    0.1370    9.9750 H     414  WAT414      0.2052
   1239  H2        21.4040    0.9420   11.2370 H     414  WAT414      0.2052
   1240  O         20.7370    0.8430   13.1580 O.3   415  WAT415     -0.4105
   1241  H1        20.3880    1.3000   13.9240 H     415  WAT415      0.2052
   1242  H2        20.4050   -0.0510   13.2400 H     415  WAT415      0.2052
   1243  O         22.3430   14.0150   17.3230 O.3   416  WAT416     -0.4105
   1244  H1        22.3000   13.6440   18.2050 H     416  WAT416      0.2052
   1245  H2        22.4740   14.9530   17.4630 H     416  WAT416      0.2052
   1246  O         26.0440   15.5710   12.9240 O.3   417  WAT417     -0.4105
   1247  H1        25.8030   15.8390   12.0370 H     417  WAT417      0.2052
   1248  H2        26.9840   15.7420   12.9790 H     417  WAT417      0.2052
   1249  O         28.2490    2.0340   16.6800 O.3   418  WAT418     -0.4105
   1250  H1        28.1880    2.6270   17.4290 H     418  WAT418      0.2052
   1251  H2        29.1890    1.9270   16.5350 H     418  WAT418      0.2052
   1252  O         21.4090    0.3710   16.4330 O.3   419  WAT419     -0.4105
   1253  H1        21.9570    0.1900   15.6700 H     419  WAT419      0.2052
   1254  H2        21.4740   -0.4200   16.9690 H     419  WAT419      0.2052
   1255  O         22.1820   16.9610   14.4430 O.3   420  WAT420     -0.4105
   1256  H1        21.5880   16.8300   15.1820 H     420  WAT420      0.2052
   1257  H2        22.1740   16.1250   13.9770 H     420  WAT420      0.2052
   1258  O         21.8130   14.3270   13.3940 O.3   421  WAT421     -0.4105
   1259  H1        21.0860   13.7080   13.3260 H     421  WAT421      0.2052
   1260  H2        21.8740   14.7210   12.5240 H     421  WAT421      0.2052
   1261  O         25.4180   16.5420   10.1790 O.3   422  WAT422     -0.4105
   1262  H1        25.9340   15.9300    9.6540 H     422  WAT422      0.2052
   1263  H2        26.0670   17.0450   10.6700 H     422  WAT422      0.2052
   1264  O         28.1570   17.4330   11.0060 O.3   423  WAT423     -0.4105
   1265  H1        28.4450   17.1780   10.1290 H     423  WAT423      0.2052
   1266  H2        28.6690   16.8800   11.5960 H     423  WAT423      0.2052
   1267  O         29.3750    1.1720   11.5850 O.3   424  WAT424     -0.4105
   1268  H1        28.5920    1.6460   11.8650 H     424  WAT424      0.2052
   1269  H2        29.0810    0.2670   11.4770 H     424  WAT424      0.2052
   1270  O         20.0960   17.6450    6.6030 O.3   425  WAT425     -0.4105
   1271  H1        19.9280   17.0120    7.3020 H     425  WAT425      0.2052
   1272  H2        19.2290   17.8510    6.2530 H     425  WAT425      0.2052
   1273  O         20.7190    1.4760    4.1070 O.3   426  WAT426     -0.4105
   1274  H1        21.4770    1.5890    3.5330 H     426  WAT426      0.2052
   1275  H2        20.2570    2.3130    4.0610 H     426  WAT426      0.2052
   1276  O         27.2600    3.5900    7.0970 O.3   427  WAT427     -0.4105
   1277  H1        26.4480    3.2160    6.7560 H     427  WAT427      0.2052
   1278  H2        27.7640    2.8350    7.3990 H     427  WAT427      0.2052
   1279  O         21.7020   16.3380    4.0480 O.3   428  WAT428     -0.4105
   1280  H1        21.1770   16.7190    3.3450 H     428  WAT428      0.2052
   1281  H2        21.6270   16.9630    4.7690 H     428  WAT428      0.2052
   1282  O         23.0910    2.0030    2.6470 O.3   429  WAT429     -0.4105
   1283  H1        23.6210    1.2160    2.5180 H     429  WAT429      0.2052
   1284  H2        23.7240    2.6820    2.8800 H     429  WAT429      0.2052
   1285  O         25.2850    1.7400    5.7010 O.3   430  WAT430     -0.4105
   1286  H1        24.6550    1.0390    5.8680 H     430  WAT430      0.2052
   1287  H2        24.7460    2.5010    5.4850 H     430  WAT430      0.2052
   1288  O         28.2240   18.3540   18.3720 O.3   431  WAT431     -0.4105
   1289  H1        29.1510   18.1190   18.4160 H     431  WAT431      0.2052
   1290  H2        28.2090   19.1810   17.8910 H     431  WAT431      0.2052
   1291  O         25.4110    1.0190   18.1370 O.3   432  WAT432     -0.4105
   1292  H1        25.1290    1.5220   17.3730 H     432  WAT432      0.2052
   1293  H2        25.7930    0.2210   17.7710 H     432  WAT432      0.2052
   1294  O         24.3020   18.2860    2.9230 O.3   433  WAT433     -0.4105
   1295  H1        25.0330   18.0020    2.3760 H     433  WAT433      0.2052
   1296  H2        24.5610   18.0480    3.8130 H     433  WAT433      0.2052
   1297  O         23.4630   14.4030    2.9280 O.3   434  WAT434     -0.4105
   1298  H1        22.8340   14.8710    3.4770 H     434  WAT434      0.2052
   1299  H2        23.5780   13.5580    3.3630 H     434  WAT434      0.2052
   1300  O         29.0500   10.2310   -9.0410 O.3   435  WAT435     -0.4105
   1301  H1        28.2740    9.7510   -8.7510 H     435  WAT435      0.2052
   1302  H2        29.7010    9.5520   -9.2150 H     435  WAT435      0.2052
   1303  O         23.0660   10.5430   -8.1630 O.3   436  WAT436     -0.4105
   1304  H1        22.2350   10.2880   -7.7640 H     436  WAT436      0.2052
   1305  H2        23.6750   10.6140   -7.4280 H     436  WAT436      0.2052
   1306  O         23.0470   14.5770   -7.9680 O.3   437  WAT437     -0.4105
   1307  H1        23.3490   13.6870   -8.1470 H     437  WAT437      0.2052
   1308  H2        23.7910   15.1340   -8.1950 H     437  WAT437      0.2052
   1309  O         21.4760    5.5030  -14.3790 O.3   438  WAT438     -0.4105
   1310  H1        20.5870    5.8450  -14.4810 H     438  WAT438      0.2052
   1311  H2        21.7600    5.3030  -15.2710 H     438  WAT438      0.2052
   1312  O         19.4390    8.1040   -8.4950 O.3   439  WAT439     -0.4105
   1313  H1        20.0110    7.3360   -8.4950 H     439  WAT439      0.2052
   1314  H2        19.4390    8.4030   -9.4050 H     439  WAT439      0.2052
   1315  O         28.4910   12.9070   -9.0340 O.3   440  WAT440     -0.4105
   1316  H1        28.4220   11.9660   -9.1950 H     440  WAT440      0.2052
   1317  H2        29.2530   12.9970   -8.4620 H     440  WAT440      0.2052
   1318  O         20.6810    3.5120   -6.7080 O.3   441  WAT441     -0.4105
   1319  H1        20.5020    2.6150   -6.4280 H     441  WAT441      0.2052
   1320  H2        20.2790    4.0600   -6.0340 H     441  WAT441      0.2052
   1321  O         29.5210    5.7140   -8.8070 O.3   442  WAT442     -0.4105
   1322  H1        29.8980    4.8410   -8.9200 H     442  WAT442      0.2052
   1323  H2        29.4230    6.0500   -9.6980 H     442  WAT442      0.2052
   1324  O         23.6520    4.0870  -13.3450 O.3   443  WAT443     -0.4105
   1325  H1        23.7580    4.9870  -13.0380 H     443  WAT443      0.2052
   1326  H2        22.7410    4.0380  -13.6360 H     443  WAT443      0.2052
   1327  O         21.3000    6.0080   -8.1000 O.3   444  WAT444     -0.4105
   1328  H1        21.9810    6.2720   -7.4810 H     444  WAT444      0.2052
   1329  H2        20.9850    5.1690   -7.7660 H     444  WAT444      0.2052
   1330  O         25.4930    7.0550   -9.0130 O.3   445  WAT445     -0.4105
   1331  H1        26.0000    7.5530   -8.3720 H     445  WAT445      0.2052
   1332  H2        26.0240    6.2790   -9.1890 H     445  WAT445      0.2052
   1333  O         23.7760    1.6950   -4.7460 O.3   446  WAT446     -0.4105
   1334  H1        23.7780    2.2120   -5.5520 H     446  WAT446      0.2052
   1335  H2        22.9470    1.2180   -4.7690 H     446  WAT446      0.2052
   1336  O         25.0260   11.3350   -6.5690 O.3   447  WAT447     -0.4105
   1337  H1        24.6930   11.9610   -5.9270 H     447  WAT447      0.2052
   1338  H2        25.2030   11.8610   -7.3490 H     447  WAT447      0.2052
   1339  O         23.4580    3.4060   -6.7390 O.3   448  WAT448     -0.4105
   1340  H1        23.7990    4.2500   -7.0340 H     448  WAT448      0.2052
   1341  H2        22.5190    3.5540   -6.6230 H     448  WAT448      0.2052
   1342  O         24.2380   13.3030   -4.7540 O.3   449  WAT449     -0.4105
   1343  H1        24.8560   13.9780   -5.0360 H     449  WAT449      0.2052
   1344  H2        23.3780   13.7110   -4.8450 H     449  WAT449      0.2052
   1345  O         19.5320   12.4930  -15.8740 O.3   450  WAT450     -0.4105
   1346  H1        19.1540   12.9810  -16.6050 H     450  WAT450      0.2052
   1347  H2        19.7890   13.1650  -15.2430 H     450  WAT450      0.2052
   1348  O         27.1400    0.8940  -10.4150 O.3   451  WAT451     -0.4105
   1349  H1        27.4480    0.3390  -11.1310 H     451  WAT451      0.2052
   1350  H2        26.2110    1.0290  -10.5980 H     451  WAT451      0.2052
   1351  O         29.5290    8.9590  -13.6790 O.3   452  WAT452     -0.4105
   1352  H1        28.6010    8.8930  -13.4500 H     452  WAT452      0.2052
   1353  H2        29.6810    9.8970  -13.7930 H     452  WAT452      0.2052
   1354  O         29.5150    5.2310  -16.6820 O.3   453  WAT453     -0.4105
   1355  H1        28.5760    5.3920  -16.5970 H     453  WAT453      0.2052
   1356  H2        29.8340    5.9490  -17.2290 H     453  WAT453      0.2052
   1357  O         25.1340    9.4860  -10.8970 O.3   454  WAT454     -0.4105
   1358  H1        24.7300    8.7730  -11.3920 H     454  WAT454      0.2052
   1359  H2        25.2210    9.1410  -10.0080 H     454  WAT454      0.2052
   1360  O         25.6020   13.1720   -8.7330 O.3   455  WAT455     -0.4105
   1361  H1        25.3050   12.5670   -9.4120 H     455  WAT455      0.2052
   1362  H2        26.5520   13.2100   -8.8440 H     455  WAT455      0.2052
   1363  O         23.8470    6.2600   -7.1170 O.3   456  WAT456     -0.4105
   1364  H1        24.3990    6.3690   -7.8920 H     456  WAT456      0.2052
   1365  H2        24.3610    6.6340   -6.4020 H     456  WAT456      0.2052
   1366  O         24.6940   12.9110   -2.0820 O.3   457  WAT457     -0.4105
   1367  H1        23.7970   13.1350   -1.8350 H     457  WAT457      0.2052
   1368  H2        24.7200   13.0340   -3.0310 H     457  WAT457      0.2052
   1369  O         23.5210    9.7820   -3.5070 O.3   458  WAT458     -0.4105
   1370  H1        23.3820   10.6540   -3.1380 H     458  WAT458      0.2052
   1371  H2        22.6390    9.4390   -3.6520 H     458  WAT458      0.2052
   1372  O         25.3190   15.7240   -1.2980 O.3   459  WAT459     -0.4105
   1373  H1        25.2910   16.1280   -2.1650 H     459  WAT459      0.2052
   1374  H2        25.1560   14.7950   -1.4610 H     459  WAT459      0.2052
   1375  O         21.8350    8.3800  -13.3960 O.3   460  WAT460     -0.4105
   1376  H1        21.7140    9.1060  -14.0080 H     460  WAT460      0.2052
   1377  H2        21.5250    7.6100  -13.8740 H     460  WAT460      0.2052
   1378  O         19.4730   11.5520   -7.5890 O.3   461  WAT461     -0.4105
   1379  H1        19.5510   11.6860   -8.5340 H     461  WAT461      0.2052
   1380  H2        20.0870   10.8430   -7.3970 H     461  WAT461      0.2052
   1381  O         20.7180   13.2520  -11.1790 O.3   462  WAT462     -0.4105
   1382  H1        20.3110   13.3930  -12.0330 H     462  WAT462      0.2052
   1383  H2        21.6090   12.9680  -11.3820 H     462  WAT462      0.2052
   1384  O         24.9900   17.4660  -13.0670 O.3   463  WAT463     -0.4105
   1385  H1        24.8140   16.5500  -13.2800 H     463  WAT463      0.2052
   1386  H2        24.1360   17.8250  -12.8270 H     463  WAT463      0.2052
   1387  O         19.5290   12.5930   -5.0500 O.3   464  WAT464     -0.4105
   1388  H1        19.6920   12.1240   -5.8680 H     464  WAT464      0.2052
   1389  H2        19.9940   12.0850   -4.3850 H     464  WAT464      0.2052
   1390  O         24.3010    1.7240  -10.0140 O.3   465  WAT465     -0.4105
   1391  H1        23.8580    2.5050  -10.3450 H     465  WAT465      0.2052
   1392  H2        24.8600    2.0470   -9.3070 H     465  WAT465      0.2052
   1393  O         28.5880    4.5900   -4.4100 O.3   466  WAT466     -0.4105
   1394  H1        28.1260    4.7990   -3.5980 H     466  WAT466      0.2052
   1395  H2        28.1860    3.7760   -4.7130 H     466  WAT466      0.2052
   1396  O         27.4170    1.3450  -15.1330 O.3   467  WAT467     -0.4105
   1397  H1        26.7920    1.3410  -14.4080 H     467  WAT467      0.2052
   1398  H2        27.3300    0.4780  -15.5300 H     467  WAT467      0.2052
   1399  O         26.3390    2.2680   -8.1550 O.3   468  WAT468     -0.4105
   1400  H1        26.6360    3.1750   -8.2360 H     468  WAT468      0.2052
   1401  H2        26.8870    1.7800   -8.7690 H     468  WAT468      0.2052
   1402  O         24.0920    6.8470  -12.2860 O.3   469  WAT469     -0.4105
   1403  H1        23.8670    6.6310  -11.3810 H     469  WAT469      0.2052
   1404  H2        23.3120    7.2800  -12.6310 H     469  WAT469      0.2052
   1405  O         26.5320    7.7460   -1.6200 O.3   470  WAT470     -0.4105
   1406  H1        26.4370    6.8050   -1.7700 H     470  WAT470      0.2052
   1407  H2        27.3760    7.9670   -2.0150 H     470  WAT470      0.2052
   1408  O         21.6630    4.1570   -3.4660 O.3   471  WAT471     -0.4105
   1409  H1        21.2700    5.0040   -3.2590 H     471  WAT471      0.2052
   1410  H2        20.9750    3.5200   -3.2760 H     471  WAT471      0.2052
   1411  O         28.2380    4.2400   -0.3970 O.3   472  WAT472     -0.4105
   1412  H1        27.5480    4.0480    0.2380 H     472  WAT472      0.2052
   1413  H2        28.9810    4.5240    0.1360 H     472  WAT472      0.2052
   1414  O         18.9650    2.0800   -9.4330 O.3   473  WAT473     -0.4105
   1415  H1        18.6760    2.6500   -8.7210 H     473  WAT473      0.2052
   1416  H2        19.7100    1.6000   -9.0700 H     473  WAT473      0.2052
   1417  O         19.1520    6.0220  -18.2230 O.3   474  WAT474     -0.4105
   1418  H1        19.0700    6.9650  -18.0820 H     474  WAT474      0.2052
   1419  H2        18.8000    5.8790  -19.1020 H     474  WAT474      0.2052
   1420  O         26.9520    4.7560   -9.1560 O.3   475  WAT475     -0.4105
   1421  H1        26.9560    4.3150  -10.0060 H     475  WAT475      0.2052
   1422  H2        27.8470    5.0770   -9.0490 H     475  WAT475      0.2052
   1423  O         22.8020    4.6380  -10.1970 O.3   476  WAT476     -0.4105
   1424  H1        22.4620    5.1160   -9.4400 H     476  WAT476      0.2052
   1425  H2        22.0400    4.1850  -10.5570 H     476  WAT476      0.2052
   1426  O         27.0140    5.7570  -16.1650 O.3   477  WAT477     -0.4105
   1427  H1        27.1350    5.7160  -15.2170 H     477  WAT477      0.2052
   1428  H2        26.6290    6.6190  -16.3210 H     477  WAT477      0.2052
   1429  O         26.0260    8.0670  -16.7670 O.3   478  WAT478     -0.4105
   1430  H1        25.4580    7.6190  -17.3930 H     478  WAT478      0.2052
   1431  H2        26.7350    8.4260  -17.3010 H     478  WAT478      0.2052
   1432  O         21.1030   11.9680   -2.8900 O.3   479  WAT479     -0.4105
   1433  H1        20.7190   11.3280   -2.2920 H     479  WAT479      0.2052
   1434  H2        21.4140   12.6720   -2.3210 H     479  WAT479      0.2052
   1435  O         27.2530    8.8160   -7.4100 O.3   480  WAT480     -0.4105
   1436  H1        27.6200    8.3420   -6.6630 H     480  WAT480      0.2052
   1437  H2        27.0630    9.6900   -7.0690 H     480  WAT480      0.2052
   1438  O         20.1170    3.5600  -11.2800 O.3   481  WAT481     -0.4105
   1439  H1        19.8320    3.1960  -10.4420 H     481  WAT481      0.2052
   1440  H2        20.0550    2.8280  -11.8940 H     481  WAT481      0.2052
   1441  O         25.0430    7.8570   -5.0910 O.3   482  WAT482     -0.4105
   1442  H1        24.7380    8.7360   -4.8660 H     482  WAT482      0.2052
   1443  H2        25.9970    7.9170   -5.0550 H     482  WAT482      0.2052
   1444  O         23.5710   12.0630  -14.4940 O.3   483  WAT483     -0.4105
   1445  H1        22.7970   11.5230  -14.6550 H     483  WAT483      0.2052
   1446  H2        24.3000   11.5430  -14.8330 H     483  WAT483      0.2052
   1447  O         29.7910    2.4530  -14.5590 O.3   484  WAT484     -0.4105
   1448  H1        28.9770    1.9540  -14.6340 H     484  WAT484      0.2052
   1449  H2        29.5970    3.2930  -14.9750 H     484  WAT484      0.2052
   1450  O         29.7120   11.1300   -2.8150 O.3   485  WAT485     -0.4105
   1451  H1        29.6450   10.2100   -3.0690 H     485  WAT485      0.2052
   1452  H2        29.0820   11.2280   -2.1000 H     485  WAT485      0.2052
   1453  O         23.6150   11.7310  -10.8570 O.3   486  WAT486     -0.4105
   1454  H1        24.1320   10.9280  -10.9110 H     486  WAT486      0.2052
   1455  H2        23.1630   11.6690  -10.0150 H     486  WAT486      0.2052
   1456  O         28.5020   12.9970  -15.5840 O.3   487  WAT487     -0.4105
   1457  H1        28.8430   13.7420  -16.0790 H     487  WAT487      0.2052
   1458  H2        27.6730   13.3110  -15.2210 H     487  WAT487      0.2052
   1459  O         21.0990    8.6970   -3.9440 O.3   488  WAT488     -0.4105
   1460  H1        20.7410    9.3620   -3.3570 H     488  WAT488      0.2052
   1461  H2        20.8050    7.8650   -3.5730 H     488  WAT488      0.2052
   1462  O         24.3000    9.1550   -1.0600 O.3   489  WAT489     -0.4105
   1463  H1        24.0000    9.3010   -1.9570 H     489  WAT489      0.2052
   1464  H2        25.0720    8.5960   -1.1530 H     489  WAT489      0.2052
   1465  O         29.6430   13.9520   -3.0650 O.3   490  WAT490     -0.4105
   1466  H1        29.6580   13.0200   -3.2830 H     490  WAT490      0.2052
   1467  H2        28.9360   14.0380   -2.4260 H     490  WAT490      0.2052
   1468  O         27.4710   13.0790  -12.8120 O.3   491  WAT491     -0.4105
   1469  H1        28.1580   13.6260  -12.4310 H     491  WAT491      0.2052
   1470  H2        26.6840   13.6230  -12.7770 H     491  WAT491      0.2052
   1471  O         19.6100    8.6960  -17.3210 O.3   492  WAT492     -0.4105
   1472  H1        20.4790    8.9790  -17.0370 H     492  WAT492      0.2052
   1473  H2        19.1190    9.5100  -17.4360 H     492  WAT492      0.2052
   1474  O         26.7730   10.0830  -13.2000 O.3   493  WAT493     -0.4105
   1475  H1        27.2300   10.8940  -12.9740 H     493  WAT493      0.2052
   1476  H2        26.4220    9.7660  -12.3680 H     493  WAT493      0.2052
   1477  O         29.0770   15.5940   -5.9700 O.3   494  WAT494     -0.4105
   1478  H1        29.7210   15.8000   -5.2930 H     494  WAT494      0.2052
   1479  H2        29.4400   14.8330   -6.4230 H     494  WAT494      0.2052
   1480  O         22.6750    0.4270  -12.7270 O.3   495  WAT495     -0.4105
   1481  H1        22.5460    0.4190  -11.7790 H     495  WAT495      0.2052
   1482  H2        21.8510    0.7650  -13.0780 H     495  WAT495      0.2052
   1483  O         19.9770   17.9090  -16.7540 O.3   496  WAT496     -0.4105
   1484  H1        20.3370   18.5080  -17.4090 H     496  WAT496      0.2052
   1485  H2        19.8360   18.4550  -15.9810 H     496  WAT496      0.2052
   1486  O         19.6740    2.1860   -3.2670 O.3   497  WAT497     -0.4105
   1487  H1        18.9600    2.3860   -2.6620 H     497  WAT497      0.2052
   1488  H2        20.0930    1.4100   -2.8950 H     497  WAT497      0.2052
   1489  O         19.9610   16.1740   -2.2800 O.3   498  WAT498     -0.4105
   1490  H1        20.0700   15.2340   -2.4210 H     498  WAT498      0.2052
   1491  H2        19.3090   16.4400   -2.9290 H     498  WAT498      0.2052
   1492  O         27.9520   14.4460   -0.8800 O.3   499  WAT499     -0.4105
   1493  H1        27.6320   13.7270   -0.3360 H     499  WAT499      0.2052
   1494  H2        27.2780   15.1210   -0.8070 H     499  WAT499      0.2052
   1495  O         25.9940   15.2920  -15.9370 O.3   500  WAT500     -0.4105
   1496  H1        25.9850   16.0250  -16.5530 H     500  WAT500      0.2052
   1497  H2        25.0740   15.0450  -15.8440 H     500  WAT500      0.2052
   1498  O         21.5950   10.5130  -15.1920 O.3   501  WAT501     -0.4105
   1499  H1        20.9870   11.2530  -15.1830 H     501  WAT501      0.2052
   1500  H2        22.0690   10.6030  -16.0190 H     501  WAT501      0.2052
   1501  O         28.9800   15.3550  -17.2740 O.3   502  WAT502     -0.4105
   1502  H1        29.0810   15.1510  -18.2040 H     502  WAT502      0.2052
   1503  H2        28.0800   15.1010  -17.0700 H     502  WAT502      0.2052
   1504  O         26.5020    5.9130  -13.2920 O.3   503  WAT503     -0.4105
   1505  H1        25.7940    6.3810  -12.8510 H     503  WAT503      0.2052
   1506  H2        26.7870    5.2550  -12.6580 H     503  WAT503      0.2052
   1507  O         28.1280    7.3320   -5.2930 O.3   504  WAT504     -0.4105
   1508  H1        28.6270    7.8070   -4.6280 H     504  WAT504      0.2052
   1509  H2        28.2700    6.4090   -5.0860 H     504  WAT504      0.2052
   1510  O         27.6220   17.8730  -12.5800 O.3   505  WAT505     -0.4105
   1511  H1        27.8760   17.8360  -13.5020 H     505  WAT505      0.2052
   1512  H2        26.6730   17.7470  -12.5870 H     505  WAT505      0.2052
   1513  O         24.7060    4.2210  -15.9170 O.3   506  WAT506     -0.4105
   1514  H1        25.5550    4.6580  -15.9830 H     506  WAT506      0.2052
   1515  H2        24.3390    4.5330  -15.0900 H     506  WAT506      0.2052
   1516  O         23.6050   10.4750  -17.4430 O.3   507  WAT507     -0.4105
   1517  H1        24.3710   10.3630  -16.8810 H     507  WAT507      0.2052
   1518  H2        23.6830    9.7780  -18.0960 H     507  WAT507      0.2052
   1519  O         22.3000    7.9070  -16.7600 O.3   508  WAT508     -0.4105
   1520  H1        22.3800    6.9600  -16.6480 H     508  WAT508      0.2052
   1521  H2        23.1920    8.2380  -16.6540 H     508  WAT508      0.2052
   1522  O         23.1010   18.0570   -9.6570 O.3   509  WAT509     -0.4105
   1523  H1        23.8370   17.5080   -9.3860 H     509  WAT509      0.2052
   1524  H2        23.4850   18.9220   -9.7960 H     509  WAT509      0.2052
   1525  O         19.9860   14.1240  -13.7830 O.3   510  WAT510     -0.4105
   1526  H1        19.0600   14.3660  -13.7920 H     510  WAT510      0.2052
   1527  H2        20.4510   14.9510  -13.9040 H     510  WAT510      0.2052
   1528  O         22.1070   17.2410   -0.4680 O.3   511  WAT511     -0.4105
   1529  H1        22.9080   17.5620   -0.0550 H     511  WAT511      0.2052
   1530  H2        21.5920   16.8810    0.2540 H     511  WAT511      0.2052
   1531  O         26.2110   17.2300  -17.8340 O.3   512  WAT512     -0.4105
   1532  H1        27.0040   17.5190  -18.2860 H     512  WAT512      0.2052
   1533  H2        25.6920   16.7990  -18.5130 H     512  WAT512      0.2052
   1534  O         19.8270    9.7290   -1.5250 O.3   513  WAT513     -0.4105
   1535  H1        20.3310    9.1490   -0.9530 H     513  WAT513      0.2052
   1536  H2        19.0880   10.0130   -0.9870 H     513  WAT513      0.2052
   1537  O         26.7290   12.4500  -17.9700 O.3   514  WAT514     -0.4105
   1538  H1        26.6240   11.8350  -17.2440 H     514  WAT514      0.2052
   1539  H2        26.5620   11.9270  -18.7540 H     514  WAT514      0.2052
   1540  O         26.8810   11.1360   -1.9910 O.3   515  WAT515     -0.4105
   1541  H1        26.1150   11.7040   -2.0760 H     515  WAT515      0.2052
   1542  H2        27.0620   10.8430   -2.8840 H     515  WAT515      0.2052
   1543  O         21.8590    7.8720   -0.6300 O.3   516  WAT516     -0.4105
   1544  H1        21.9000    7.5730    0.2790 H     516  WAT516      0.2052
   1545  H2        22.7140    8.2720   -0.7890 H     516  WAT516      0.2052
   1546  O         25.6370   10.4710  -15.4690 O.3   517  WAT517     -0.4105
   1547  H1        26.0590   10.3050  -14.6260 H     517  WAT517      0.2052
   1548  H2        25.7620    9.6610  -15.9640 H     517  WAT517      0.2052
   1549  O         23.8000    6.4510   -2.6620 O.3   518  WAT518     -0.4105
   1550  H1        23.2690    5.9600   -3.2900 H     518  WAT518      0.2052
   1551  H2        24.4690    6.8790   -3.1960 H     518  WAT518      0.2052
   1552  O         28.1500    9.4950  -18.2210 O.3   519  WAT519     -0.4105
   1553  H1        28.6700    8.7800  -18.5870 H     519  WAT519      0.2052
   1554  H2        28.7970   10.1330  -17.9210 H     519  WAT519      0.2052
   1555  O         24.2870    3.4170   -2.5820 O.3   520  WAT520     -0.4105
   1556  H1        24.1930    2.7990   -3.3070 H     520  WAT520      0.2052
   1557  H2        23.7070    4.1440   -2.8090 H     520  WAT520      0.2052
   1558  O         27.0530    1.9740   -5.5500 O.3   521  WAT521     -0.4105
   1559  H1        26.6050    1.9970   -6.3950 H     521  WAT521      0.2052
   1560  H2        26.4200    1.5760   -4.9530 H     521  WAT521      0.2052
   1561  O         27.4590   10.8700   -4.9280 O.3   522  WAT522     -0.4105
   1562  H1        27.8780   11.7130   -5.1010 H     522  WAT522      0.2052
   1563  H2        26.5400   11.0070   -5.1580 H     522  WAT522      0.2052
   1564  O         24.5330    6.5440  -18.5230 O.3   523  WAT523     -0.4105
   1565  H1        24.3320    5.6810  -18.1620 H     523  WAT523      0.2052
   1566  H2        24.3620    6.4580  -19.4610 H     523  WAT523      0.2052
   1567  O         25.3100   17.1750   -3.8130 O.3   524  WAT524     -0.4105
   1568  H1        24.7720   17.9000   -4.1320 H     524  WAT524      0.2052
   1569  H2        25.5630   16.6980   -4.6030 H     524  WAT524      0.2052
   1570  O         26.5620    5.1430   -2.2870 O.3   525  WAT525     -0.4105
   1571  H1        27.1520    4.8350   -1.5990 H     525  WAT525      0.2052
   1572  H2        25.7440    4.6710   -2.1310 H     525  WAT525      0.2052
   1573  O         23.3310    3.6440  -18.5360 O.3   526  WAT526     -0.4105
   1574  H1        23.6340    3.6510  -19.4440 H     526  WAT526      0.2052
   1575  H2        24.0710    3.2940  -18.0390 H     526  WAT526      0.2052
   1576  O         28.1660   18.4100   -3.5540 O.3   527  WAT527     -0.4105
   1577  H1        28.0920   19.3140   -3.2470 H     527  WAT527      0.2052
   1578  H2        27.2640   18.0910   -3.5820 H     527  WAT527      0.2052
   1579  O         26.5500    2.5880  -17.5500 O.3   528  WAT528     -0.4105
   1580  H1        26.2020    1.9100  -18.1300 H     528  WAT528      0.2052
   1581  H2        26.7510    2.1270  -16.7360 H     528  WAT528      0.2052
   1582  O         28.7150   17.5760  -15.9310 O.3   529  WAT529     -0.4105
   1583  H1        29.6100   17.9140  -15.9090 H     529  WAT529      0.2052
   1584  H2        28.7460   16.8540  -16.5590 H     529  WAT529      0.2052
   1585  O         22.3540   12.9490  -17.7030 O.3   530  WAT530     -0.4105
   1586  H1        22.7920   13.4920  -17.0470 H     530  WAT530      0.2052
   1587  H2        22.8390   12.1230  -17.6930 H     530  WAT530      0.2052
   1588  O         19.5690   15.7380  -10.2510 O.3   531  WAT531     -0.4105
   1589  H1        19.8990   14.8700  -10.4830 H     531  WAT531      0.2052
   1590  H2        19.9980   15.9430   -9.4200 H     531  WAT531      0.2052
   1591  O         24.1650   14.0680  -12.5900 O.3   532  WAT532     -0.4105
   1592  H1        23.8640   13.9450  -11.6900 H     532  WAT532      0.2052
   1593  H2        24.0590   13.2090  -12.9990 H     532  WAT532      0.2052
   1594  O         20.0580   16.6050   -7.5120 O.3   533  WAT533     -0.4105
   1595  H1        19.6210   16.7850   -6.6800 H     533  WAT533      0.2052
   1596  H2        20.6260   17.3620   -7.6540 H     533  WAT533      0.2052
   1597  O         19.8900    9.1170  -11.1540 O.3   534  WAT534     -0.4105
   1598  H1        19.2350    8.8480  -11.7980 H     534  WAT534      0.2052
   1599  H2        20.7280    9.0070  -11.6030 H     534  WAT534      0.2052
   1600  O         20.9280    9.5020   -6.6130 O.3   535  WAT535     -0.4105
   1601  H1        21.2950    9.4150   -5.7340 H     535  WAT535      0.2052
   1602  H2        20.3590    8.7390   -6.7130 H     535  WAT535      0.2052
   1603  O         20.4790    6.4130   -2.7070 O.3   536  WAT536     -0.4105
   1604  H1        19.5850    6.3800   -2.3680 H     536  WAT536      0.2052
   1605  H2        21.0190    6.6120   -1.9420 H     536  WAT536      0.2052
   1606  O         19.1040    6.3270  -15.2110 O.3   537  WAT537     -0.4105
   1607  H1        18.2000    6.5900  -15.3860 H     537  WAT537      0.2052
   1608  H2        19.5880    6.5980  -15.9910 H     537  WAT537      0.2052
   1609  O         21.6470    5.3830  -17.3020 O.3   538  WAT538     -0.4105
   1610  H1        22.3560    4.9610  -17.7870 H     538  WAT538      0.2052
   1611  H2        20.9310    5.4510  -17.9330 H     538  WAT538      0.2052
   1612  O         21.2940    1.4370  -18.2610 O.3   539  WAT539     -0.4105
   1613  H1        22.0170    1.9780  -17.9430 H     539  WAT539      0.2052
   1614  H2        21.5670    1.1630  -19.1370 H     539  WAT539      0.2052
   1615  O         20.9830    0.6880   -8.3590 O.3   540  WAT540     -0.4105
   1616  H1        21.6310    0.1370   -8.8000 H     540  WAT540      0.2052
   1617  H2        21.4040    0.9420   -7.5370 H     540  WAT540      0.2052
   1618  O         20.7370    0.8430   -5.6170 O.3   541  WAT541     -0.4105
   1619  H1        20.3880    1.3000   -4.8510 H     541  WAT541      0.2052
   1620  H2        20.4050   -0.0510   -5.5340 H     541  WAT541      0.2052
   1621  O         22.3430   14.0150   -1.4510 O.3   542  WAT542     -0.4105
   1622  H1        22.3000   13.6440   -0.5700 H     542  WAT542      0.2052
   1623  H2        22.4740   14.9530   -1.3110 H     542  WAT542      0.2052
   1624  O         26.0440   15.5710   -5.8500 O.3   543  WAT543     -0.4105
   1625  H1        25.8030   15.8390   -6.7370 H     543  WAT543      0.2052
   1626  H2        26.9840   15.7420   -5.7950 H     543  WAT543      0.2052
   1627  O         28.2490    2.0340   -2.0950 O.3   544  WAT544     -0.4105
   1628  H1        28.1880    2.6270   -1.3450 H     544  WAT544      0.2052
   1629  H2        29.1890    1.9270   -2.2400 H     544  WAT544      0.2052
   1630  O         21.4090    0.3710   -2.3410 O.3   545  WAT545     -0.4105
   1631  H1        21.9570    0.1900   -3.1050 H     545  WAT545      0.2052
   1632  H2        21.4740   -0.4200   -1.8060 H     545  WAT545      0.2052
   1633  O         22.1820   16.9610   -4.3310 O.3   546  WAT546     -0.4105
   1634  H1        21.5880   16.8300   -3.5920 H     546  WAT546      0.2052
   1635  H2        22.1740   16.1250   -4.7970 H     546  WAT546      0.2052
   1636  O         21.8130   14.3270   -5.3810 O.3   547  WAT547     -0.4105
   1637  H1        21.0860   13.7080   -5.4480 H     547  WAT547      0.2052
   1638  H2        21.8740   14.7210   -6.2510 H     547  WAT547      0.2052
   1639  O         25.4180   16.5420   -8.5960 O.3   548  WAT548     -0.4105
   1640  H1        25.9340   15.9300   -9.1210 H     548  WAT548      0.2052
   1641  H2        26.0670   17.0450   -8.1050 H     548  WAT548      0.2052
   1642  O         28.1570   17.4330   -7.7690 O.3   549  WAT549     -0.4105
   1643  H1        28.4450   17.1780   -8.6450 H     549  WAT549      0.2052
   1644  H2        28.6690   16.8800   -7.1780 H     549  WAT549      0.2052
   1645  O         29.3750    1.1720   -7.1890 O.3   550  WAT550     -0.4105
   1646  H1        28.5920    1.6460   -6.9090 H     550  WAT550      0.2052
   1647  H2        29.0810    0.2670   -7.2980 H     550  WAT550      0.2052
   1648  O         20.0960   17.6450  -12.1710 O.3   551  WAT551     -0.4105
   1649  H1        19.9280   17.0120  -11.4730 H     551  WAT551      0.2052
   1650  H2        19.2290   17.8510  -12.5220 H     551  WAT551      0.2052
   1651  O         20.7190    1.4760  -14.6680 O.3   552  WAT552     -0.4105
   1652  H1        21.4770    1.5890  -15.2410 H     552  WAT552      0.2052
   1653  H2        20.2570    2.3130  -14.7130 H     552  WAT552      0.2052
   1654  O         27.2600    3.5900  -11.6780 O.3   553  WAT553     -0.4105
   1655  H1        26.4480    3.2160  -12.0180 H     553  WAT553      0.2052
   1656  H2        27.7640    2.8350  -11.3750 H     553  WAT553      0.2052
   1657  O         21.7020   16.3380  -14.7260 O.3   554  WAT554     -0.4105
   1658  H1        21.1770   16.7190  -15.4300 H     554  WAT554      0.2052
   1659  H2        21.6270   16.9630  -14.0050 H     554  WAT554      0.2052
   1660  O         23.0910    2.0030  -16.1280 O.3   555  WAT555     -0.4105
   1661  H1        23.6210    1.2160  -16.2570 H     555  WAT555      0.2052
   1662  H2        23.7240    2.6820  -15.8940 H     555  WAT555      0.2052
   1663  O         25.2850    1.7400  -13.0730 O.3   556  WAT556     -0.4105
   1664  H1        24.6550    1.0390  -12.9060 H     556  WAT556      0.2052
   1665  H2        24.7460    2.5010  -13.2900 H     556  WAT556      0.2052
   1666  O         28.2240   18.3540   -0.4020 O.3   557  WAT557     -0.4105
   1667  H1        29.1510   18.1190   -0.3580 H     557  WAT557      0.2052
   1668  H2        28.2090   19.1810   -0.8830 H     557  WAT557      0.2052
   1669  O         25.4110    1.0190   -0.6380 O.3   558  WAT558     -0.4105
   1670  H1        25.1290    1.5220   -1.4020 H     558  WAT558      0.2052
   1671  H2        25.7930    0.2210   -1.0040 H     558  WAT558      0.2052
   1672  O         24.3020   18.2860  -15.8510 O.3   559  WAT559     -0.4105
   1673  H1        25.0330   18.0020  -16.3990 H     559  WAT559      0.2052
   1674  H2        24.5610   18.0480  -14.9610 H     559  WAT559      0.2052
   1675  O         23.4630   14.4030  -15.8460 O.3   560  WAT560     -0.4105
   1676  H1        22.8340   14.8710  -15.2980 H     560  WAT560      0.2052
   1677  H2        23.5780   13.5580  -15.4120 H     560  WAT560      0.2052
   1678  O         29.0500   10.2310  -27.8150 O.3   561  WAT561     -0.4105
   1679  H1        28.2740    9.7510  -27.5250 H     561  WAT561      0.2052
   1680  H2        29.7010    9.5520  -27.9900 H     561  WAT561      0.2052
   1681  O         23.0660   10.5430  -26.9380 O.3   562  WAT562     -0.4105
   1682  H1        22.2350   10.2880  -26.5380 H     562  WAT562      0.2052
   1683  H2        23.6750   10.6140  -26.2020 H     562  WAT562      0.2052
   1684  O         23.0470   14.5770  -26.7420 O.3   563  WAT563     -0.4105
   1685  H1        23.3490   13.6870  -26.9210 H     563  WAT563      0.2052
   1686  H2        23.7910   15.1340  -26.9700 H     563  WAT563      0.2052
   1687  O         19.4390    8.1040  -27.2700 O.3   564  WAT564     -0.4105
   1688  H1        20.0110    7.3360  -27.2690 H     564  WAT564      0.2052
   1689  H2        19.4390    8.4030  -28.1790 H     564  WAT564      0.2052
   1690  O         28.4910   12.9070  -27.8080 O.3   565  WAT565     -0.4105
   1691  H1        28.4220   11.9660  -27.9690 H     565  WAT565      0.2052
   1692  H2        29.2530   12.9970  -27.2360 H     565  WAT565      0.2052
   1693  O         20.6810    3.5120  -25.4830 O.3   566  WAT566     -0.4105
   1694  H1        20.5020    2.6150  -25.2020 H     566  WAT566      0.2052
   1695  H2        20.2790    4.0600  -24.8080 H     566  WAT566      0.2052
   1696  O         29.5210    5.7140  -27.5810 O.3   567  WAT567     -0.4105
   1697  H1        29.8980    4.8410  -27.6940 H     567  WAT567      0.2052
   1698  H2        29.4230    6.0500  -28.4720 H     567  WAT567      0.2052
   1699  O         21.3000    6.0080  -26.8740 O.3   568  WAT568     -0.4105
   1700  H1        21.9810    6.2720  -26.2560 H     568  WAT568      0.2052
   1701  H2        20.9850    5.1690  -26.5410 H     568  WAT568      0.2052
   1702  O         25.4930    7.0550  -27.7870 O.3   569  WAT569     -0.4105
   1703  H1        26.0000    7.5530  -27.1470 H     569  WAT569      0.2052
   1704  H2        26.0240    6.2790  -27.9630 H     569  WAT569      0.2052
   1705  O         23.7760    1.6950  -23.5210 O.3   570  WAT570     -0.4105
   1706  H1        23.7780    2.2120  -24.3260 H     570  WAT570      0.2052
   1707  H2        22.9470    1.2180  -23.5440 H     570  WAT570      0.2052
   1708  O         25.0260   11.3350  -25.3430 O.3   571  WAT571     -0.4105
   1709  H1        24.6930   11.9610  -24.7010 H     571  WAT571      0.2052
   1710  H2        25.2030   11.8610  -26.1230 H     571  WAT571      0.2052
   1711  O         23.4580    3.4060  -25.5140 O.3   572  WAT572     -0.4105
   1712  H1        23.7990    4.2500  -25.8080 H     572  WAT572      0.2052
   1713  H2        22.5190    3.5540  -25.3970 H     572  WAT572      0.2052
   1714  O         24.2380   13.3030  -23.5290 O.3   573  WAT573     -0.4105
   1715  H1        24.8560   13.9780  -23.8100 H     573  WAT573      0.2052
   1716  H2        23.3780   13.7110  -23.6200 H     573  WAT573      0.2052
   1717  O         27.1400    0.8940  -29.1890 O.3   574  WAT574     -0.4105
   1718  H1        27.4480    0.3390  -29.9060 H     574  WAT574      0.2052
   1719  H2        26.2110    1.0290  -29.3720 H     574  WAT574      0.2052
   1720  O         25.6020   13.1720  -27.5070 O.3   575  WAT575     -0.4105
   1721  H1        25.3050   12.5670  -28.1870 H     575  WAT575      0.2052
   1722  H2        26.5520   13.2100  -27.6180 H     575  WAT575      0.2052
   1723  O         23.8470    6.2600  -25.8910 O.3   576  WAT576     -0.4105
   1724  H1        24.3990    6.3690  -26.6660 H     576  WAT576      0.2052
   1725  H2        24.3610    6.6340  -25.1760 H     576  WAT576      0.2052
   1726  O         24.6940   12.9110  -20.8570 O.3   577  WAT577     -0.4105
   1727  H1        23.7970   13.1350  -20.6090 H     577  WAT577      0.2052
   1728  H2        24.7200   13.0340  -21.8050 H     577  WAT577      0.2052
   1729  O         23.5210    9.7820  -22.2810 O.3   578  WAT578     -0.4105
   1730  H1        23.3820   10.6540  -21.9120 H     578  WAT578      0.2052
   1731  H2        22.6390    9.4390  -22.4260 H     578  WAT578      0.2052
   1732  O         25.3190   15.7240  -20.0720 O.3   579  WAT579     -0.4105
   1733  H1        25.2910   16.1280  -20.9400 H     579  WAT579      0.2052
   1734  H2        25.1560   14.7950  -20.2350 H     579  WAT579      0.2052
   1735  O         19.4730   11.5520  -26.3640 O.3   580  WAT580     -0.4105
   1736  H1        19.5510   11.6860  -27.3080 H     580  WAT580      0.2052
   1737  H2        20.0870   10.8430  -26.1710 H     580  WAT580      0.2052
   1738  O         19.5290   12.5930  -23.8240 O.3   581  WAT581     -0.4105
   1739  H1        19.6920   12.1240  -24.6420 H     581  WAT581      0.2052
   1740  H2        19.9940   12.0850  -23.1590 H     581  WAT581      0.2052
   1741  O         24.3010    1.7240  -28.7880 O.3   582  WAT582     -0.4105
   1742  H1        23.8580    2.5050  -29.1200 H     582  WAT582      0.2052
   1743  H2        24.8600    2.0470  -28.0810 H     582  WAT582      0.2052
   1744  O         28.5880    4.5900  -23.1850 O.3   583  WAT583     -0.4105
   1745  H1        28.1260    4.7990  -22.3730 H     583  WAT583      0.2052
   1746  H2        28.1860    3.7760  -23.4880 H     583  WAT583      0.2052
   1747  O         26.3390    2.2680  -26.9290 O.3   584  WAT584     -0.4105
   1748  H1        26.6360    3.1750  -27.0100 H     584  WAT584      0.2052
   1749  H2        26.8870    1.7800  -27.5430 H     584  WAT584      0.2052
   1750  O         26.5320    7.7460  -20.3940 O.3   585  WAT585     -0.4105
   1751  H1        26.4370    6.8050  -20.5440 H     585  WAT585      0.2052
   1752  H2        27.3760    7.9670  -20.7890 H     585  WAT585      0.2052
   1753  O         21.6630    4.1570  -22.2410 O.3   586  WAT586     -0.4105
   1754  H1        21.2700    5.0040  -22.0330 H     586  WAT586      0.2052
   1755  H2        20.9750    3.5200  -22.0500 H     586  WAT586      0.2052
   1756  O         28.2380    4.2400  -19.1710 O.3   587  WAT587     -0.4105
   1757  H1        27.5480    4.0480  -18.5360 H     587  WAT587      0.2052
   1758  H2        28.9810    4.5240  -18.6390 H     587  WAT587      0.2052
   1759  O         18.9650    2.0800  -28.2080 O.3   588  WAT588     -0.4105
   1760  H1        18.6760    2.6500  -27.4950 H     588  WAT588      0.2052
   1761  H2        19.7100    1.6000  -27.8450 H     588  WAT588      0.2052
   1762  O         26.9520    4.7560  -27.9300 O.3   589  WAT589     -0.4105
   1763  H1        26.9560    4.3150  -28.7800 H     589  WAT589      0.2052
   1764  H2        27.8470    5.0770  -27.8230 H     589  WAT589      0.2052
   1765  O         22.8020    4.6380  -28.9710 O.3   590  WAT590     -0.4105
   1766  H1        22.4620    5.1160  -28.2140 H     590  WAT590      0.2052
   1767  H2        22.0400    4.1850  -29.3310 H     590  WAT590      0.2052
   1768  O         21.1030   11.9680  -21.6650 O.3   591  WAT591     -0.4105
   1769  H1        20.7190   11.3280  -21.0660 H     591  WAT591      0.2052
   1770  H2        21.4140   12.6720  -21.0950 H     591  WAT591      0.2052
   1771  O         27.2530    8.8160  -26.1840 O.3   592  WAT592     -0.4105
   1772  H1        27.6200    8.3420  -25.4380 H     592  WAT592      0.2052
   1773  H2        27.0630    9.6900  -25.8430 H     592  WAT592      0.2052
   1774  O         25.0430    7.8570  -23.8650 O.3   593  WAT593     -0.4105
   1775  H1        24.7380    8.7360  -23.6400 H     593  WAT593      0.2052
   1776  H2        25.9970    7.9170  -23.8300 H     593  WAT593      0.2052
   1777  O         29.7120   11.1300  -21.5890 O.3   594  WAT594     -0.4105
   1778  H1        29.6450   10.2100  -21.8430 H     594  WAT594      0.2052
   1779  H2        29.0820   11.2280  -20.8750 H     594  WAT594      0.2052
   1780  O         23.6150   11.7310  -29.6310 O.3   595  WAT595     -0.4105
   1781  H1        24.1320   10.9280  -29.6850 H     595  WAT595      0.2052
   1782  H2        23.1630   11.6690  -28.7890 H     595  WAT595      0.2052
   1783  O         21.0990    8.6970  -22.7180 O.3   596  WAT596     -0.4105
   1784  H1        20.7410    9.3620  -22.1310 H     596  WAT596      0.2052
   1785  H2        20.8050    7.8650  -22.3470 H     596  WAT596      0.2052
   1786  O         24.3000    9.1550  -19.8340 O.3   597  WAT597     -0.4105
   1787  H1        24.0000    9.3010  -20.7320 H     597  WAT597      0.2052
   1788  H2        25.0720    8.5960  -19.9270 H     597  WAT597      0.2052
   1789  O         29.6430   13.9520  -21.8390 O.3   598  WAT598     -0.4105
   1790  H1        29.6580   13.0200  -22.0570 H     598  WAT598      0.2052
   1791  H2        28.9360   14.0380  -21.2000 H     598  WAT598      0.2052
   1792  O         29.0770   15.5940  -24.7450 O.3   599  WAT599     -0.4105
   1793  H1        29.7210   15.8000  -24.0670 H     599  WAT599      0.2052
   1794  H2        29.4400   14.8330  -25.1980 H     599  WAT599      0.2052
   1795  O         19.6740    2.1860  -22.0410 O.3   600  WAT600     -0.4105
   1796  H1        18.9600    2.3860  -21.4360 H     600  WAT600      0.2052
   1797  H2        20.0930    1.4100  -21.6700 H     600  WAT600      0.2052
   1798  O         19.9610   16.1740  -21.0540 O.3   601  WAT601     -0.4105
   1799  H1        20.0700   15.2340  -21.1950 H     601  WAT601      0.2052
   1800  H2        19.3090   16.4400  -21.7030 H     601  WAT601      0.2052
   1801  O         27.9520   14.4460  -19.6550 O.3   602  WAT602     -0.4105
   1802  H1        27.6320   13.7270  -19.1100 H     602  WAT602      0.2052
   1803  H2        27.2780   15.1210  -19.5810 H     602  WAT602      0.2052
   1804  O         28.1280    7.3320  -24.0670 O.3   603  WAT603     -0.4105
   1805  H1        28.6270    7.8070  -23.4020 H     603  WAT603      0.2052
   1806  H2        28.2700    6.4090  -23.8600 H     603  WAT603      0.2052
   1807  O         23.1010   18.0570  -28.4310 O.3   604  WAT604     -0.4105
   1808  H1        23.8370   17.5080  -28.1600 H     604  WAT604      0.2052
   1809  H2        23.4850   18.9220  -28.5700 H     604  WAT604      0.2052
   1810  O         22.1070   17.2410  -19.2430 O.3   605  WAT605     -0.4105
   1811  H1        22.9080   17.5620  -18.8290 H     605  WAT605      0.2052
   1812  H2        21.5920   16.8810  -18.5210 H     605  WAT605      0.2052
   1813  O         19.8270    9.7290  -20.2990 O.3   606  WAT606     -0.4105
   1814  H1        20.3310    9.1490  -19.7270 H     606  WAT606      0.2052
   1815  H2        19.0880   10.0130  -19.7610 H     606  WAT606      0.2052
   1816  O         26.8810   11.1360  -20.7650 O.3   607  WAT607     -0.4105
   1817  H1        26.1150   11.7040  -20.8500 H     607  WAT607      0.2052
   1818  H2        27.0620   10.8430  -21.6590 H     607  WAT607      0.2052
   1819  O         21.8590    7.8720  -19.4040 O.3   608  WAT608     -0.4105
   1820  H1        21.9000    7.5730  -18.4950 H     608  WAT608      0.2052
   1821  H2        22.7140    8.2720  -19.5630 H     608  WAT608      0.2052
   1822  O         23.8000    6.4510  -21.4360 O.3   609  WAT609     -0.4105
   1823  H1        23.2690    5.9600  -22.0640 H     609  WAT609      0.2052
   1824  H2        24.4690    6.8790  -21.9710 H     609  WAT609      0.2052
   1825  O         24.2870    3.4170  -21.3570 O.3   610  WAT610     -0.4105
   1826  H1        24.1930    2.7990  -22.0820 H     610  WAT610      0.2052
   1827  H2        23.7070    4.1440  -21.5840 H     610  WAT610      0.2052
   1828  O         27.0530    1.9740  -24.3240 O.3   611  WAT611     -0.4105
   1829  H1        26.6050    1.9970  -25.1690 H     611  WAT611      0.2052
   1830  H2        26.4200    1.5760  -23.7270 H     611  WAT611      0.2052
   1831  O         27.4590   10.8700  -23.7030 O.3   612  WAT612     -0.4105
   1832  H1        27.8780   11.7130  -23.8750 H     612  WAT612      0.2052
   1833  H2        26.5400   11.0070  -23.9320 H     612  WAT612      0.2052
   1834  O         25.3100   17.1750  -22.5870 O.3   613  WAT613     -0.4105
   1835  H1        24.7720   17.9000  -22.9060 H     613  WAT613      0.2052
   1836  H2        25.5630   16.6980  -23.3770 H     613  WAT613      0.2052
   1837  O         26.5620    5.1430  -21.0610 O.3   614  WAT614     -0.4105
   1838  H1        27.1520    4.8350  -20.3740 H     614  WAT614      0.2052
   1839  H2        25.7440    4.6710  -20.9050 H     614  WAT614      0.2052
   1840  O         28.1660   18.4100  -22.3280 O.3   615  WAT615     -0.4105
   1841  H1        28.0920   19.3140  -22.0210 H     615  WAT615      0.2052
   1842  H2        27.2640   18.0910  -22.3560 H     615  WAT615      0.2052
   1843  O         19.5690   15.7380  -29.0250 O.3   616  WAT616     -0.4105
   1844  H1        19.8990   14.8700  -29.2570 H     616  WAT616      0.2052
   1845  H2        19.9980   15.9430  -28.1940 H     616  WAT616      0.2052
   1846  O         20.0580   16.6050  -26.2870 O.3   617  WAT617     -0.4105
   1847  H1        19.6210   16.7850  -25.4540 H     617  WAT617      0.2052
   1848  H2        20.6260   17.3620  -26.4290 H     617  WAT617      0.2052
   1849  O         20.9280    9.5020  -25.3880 O.3   618  WAT618     -0.4105
   1850  H1        21.2950    9.4150  -24.5080 H     618  WAT618      0.2052
   1851  H2        20.3590    8.7390  -25.4870 H     618  WAT618      0.2052
   1852  O         20.4790    6.4130  -21.4820 O.3   619  WAT619     -0.4105
   1853  H1        19.5850    6.3800  -21.1420 H     619  WAT619      0.2052
   1854  H2        21.0190    6.6120  -20.7170 H     619  WAT619      0.2052
   1855  O         20.9830    0.6880  -27.1330 O.3   620  WAT620     -0.4105
   1856  H1        21.6310    0.1370  -27.5740 H     620  WAT620      0.2052
   1857  H2        21.4040    0.9420  -26.3120 H     620  WAT620      0.2052
   1858  O         20.7370    0.8430  -24.3910 O.3   621  WAT621     -0.4105
   1859  H1        20.3880    1.3000  -23.6250 H     621  WAT621      0.2052
   1860  H2        20.4050   -0.0510  -24.3090 H     621  WAT621      0.2052
   1861  O         22.3430   14.0150  -20.2260 O.3   622  WAT622     -0.4105
   1862  H1        22.3000   13.6440  -19.3440 H     622  WAT622      0.2052
   1863  H2        22.4740   14.9530  -20.0850 H     622  WAT622      0.2052
   1864  O         26.0440   15.5710  -24.6250 O.3   623  WAT623     -0.4105
   1865  H1        25.8030   15.8390  -25.5120 H     623  WAT623      0.2052
   1866  H2        26.9840   15.7420  -24.5690 H     623  WAT623      0.2052
   1867  O         28.2490    2.0340  -20.8690 O.3   624  WAT624     -0.4105
   1868  H1        28.1880    2.6270  -20.1190 H     624  WAT624      0.2052
   1869  H2        29.1890    1.9270  -21.0140 H     624  WAT624      0.2052
   1870  O         21.4090    0.3710  -21.1160 O.3   625  WAT625     -0.4105
   1871  H1        21.9570    0.1900  -21.8790 H     625  WAT625      0.2052
   1872  H2        21.4740   -0.4200  -20.5800 H     625  WAT625      0.2052
   1873  O         22.1820   16.9610  -23.1060 O.3   626  WAT626     -0.4105
   1874  H1        21.5880   16.8300  -22.3670 H     626  WAT626      0.2052
   1875  H2        22.1740   16.1250  -23.5720 H     626  WAT626      0.2052
   1876  O         21.8130   14.3270  -24.1550 O.3   627  WAT627     -0.4105
   1877  H1        21.0860   13.7080  -24.2220 H     627  WAT627      0.2052
   1878  H2        21.8740   14.7210  -25.0250 H     627  WAT627      0.2052
   1879  O         25.4180   16.5420  -27.3700 O.3   628  WAT628     -0.4105
   1880  H1        25.9340   15.9300  -27.8950 H     628  WAT628      0.2052
   1881  H2        26.0670   17.0450  -26.8790 H     628  WAT628      0.2052
   1882  O         28.1570   17.4330  -26.5430 O.3   629  WAT629     -0.4105
   1883  H1        28.4450   17.1780  -27.4200 H     629  WAT629      0.2052
   1884  H2        28.6690   16.8800  -25.9530 H     629  WAT629      0.2052
   1885  O         29.3750    1.1720  -25.9630 O.3   630  WAT630     -0.4105
   1886  H1        28.5920    1.6460  -25.6840 H     630  WAT630      0.2052
   1887  H2        29.0810    0.2670  -26.0720 H     630  WAT630      0.2052
   1888  O         28.2240   18.3540  -19.1760 O.3   631  WAT631     -0.4105
   1889  H1        29.1510   18.1190  -19.1330 H     631  WAT631      0.2052
   1890  H2        28.2090   19.1810  -19.6580 H     631  WAT631      0.2052
   1891  O         25.4110    1.0190  -19.4120 O.3   632  WAT632     -0.4105
   1892  H1        25.1290    1.5220  -20.1760 H     632  WAT632      0.2052
   1893  H2        25.7930    0.2210  -19.7780 H     632  WAT632      0.2052
   1894  O         29.0500   -8.5430   28.5080 O.3   633  WAT633     -0.4105
   1895  H1        28.2740   -9.0230   28.7980 H     633  WAT633      0.2052
   1896  H2        29.7010   -9.2230   28.3330 H     633  WAT633      0.2052
   1897  O         23.0470   -4.1970   29.5810 O.3   634  WAT634     -0.4105
   1898  H1        23.3490   -5.0870   29.4020 H     634  WAT634      0.2052
   1899  H2        23.7910   -3.6400   29.3530 H     634  WAT634      0.2052
   1900  O         21.4760  -13.2710   23.1700 O.3   635  WAT635     -0.4105
   1901  H1        20.5870  -12.9290   23.0680 H     635  WAT635      0.2052
   1902  H2        21.7600  -13.4710   22.2780 H     635  WAT635      0.2052
   1903  O         19.4390  -10.6700   29.0540 O.3   636  WAT636     -0.4105
   1904  H1        20.0110  -11.4380   29.0540 H     636  WAT636      0.2052
   1905  H2        19.4390  -10.3720   28.1440 H     636  WAT636      0.2052
   1906  O         28.4910   -5.8670   28.5150 O.3   637  WAT637     -0.4105
   1907  H1        28.4220   -6.8080   28.3540 H     637  WAT637      0.2052
   1908  H2        29.2530   -5.7770   29.0870 H     637  WAT637      0.2052
   1909  O         29.5210  -13.0600   28.7420 O.3   638  WAT638     -0.4105
   1910  H1        29.8980  -13.9330   28.6290 H     638  WAT638      0.2052
   1911  H2        29.4230  -12.7250   27.8510 H     638  WAT638      0.2052
   1912  O         23.6520  -14.6880   24.2030 O.3   639  WAT639     -0.4105
   1913  H1        23.7580  -13.7870   24.5100 H     639  WAT639      0.2052
   1914  H2        22.7410  -14.7360   23.9130 H     639  WAT639      0.2052
   1915  O         21.3000  -12.7660   29.4490 O.3   640  WAT640     -0.4105
   1916  H1        21.9810  -12.5020   30.0670 H     640  WAT640      0.2052
   1917  H2        20.9850  -13.6060   29.7820 H     640  WAT640      0.2052
   1918  O         25.4930  -11.7190   28.5360 O.3   641  WAT641     -0.4105
   1919  H1        26.0000  -11.2210   29.1760 H     641  WAT641      0.2052
   1920  H2        26.0240  -12.4960   28.3600 H     641  WAT641      0.2052
   1921  O         19.5320   -6.2820   21.6750 O.3   642  WAT642     -0.4105
   1922  H1        19.1540   -5.7930   20.9440 H     642  WAT642      0.2052
   1923  H2        19.7890   -5.6090   22.3060 H     642  WAT642      0.2052
   1924  O         27.1400  -17.8800   27.1340 O.3   643  WAT643     -0.4105
   1925  H1        27.4480  -18.4350   26.4170 H     643  WAT643      0.2052
   1926  H2        26.2110  -17.7460   26.9510 H     643  WAT643      0.2052
   1927  O         29.5290   -9.8150   23.8700 O.3   644  WAT644     -0.4105
   1928  H1        28.6010   -9.8810   24.0990 H     644  WAT644      0.2052
   1929  H2        29.6810   -8.8770   23.7550 H     644  WAT644      0.2052
   1930  O         29.5150  -13.5440   20.8660 O.3   645  WAT645     -0.4105
   1931  H1        28.5760  -13.3820   20.9520 H     645  WAT645      0.2052
   1932  H2        29.8340  -12.8250   20.3200 H     645  WAT645      0.2052
   1933  O         25.1340   -9.2890   26.6520 O.3   646  WAT646     -0.4105
   1934  H1        24.7300  -10.0010   26.1560 H     646  WAT646      0.2052
   1935  H2        25.2210   -9.6330   27.5410 H     646  WAT646      0.2052
   1936  O         25.6020   -5.6020   28.8160 O.3   647  WAT647     -0.4105
   1937  H1        25.3050   -6.2070   28.1360 H     647  WAT647      0.2052
   1938  H2        26.5520   -5.5640   28.7050 H     647  WAT647      0.2052
   1939  O         21.8350  -10.3940   24.1520 O.3   648  WAT648     -0.4105
   1940  H1        21.7140   -9.6680   23.5410 H     648  WAT648      0.2052
   1941  H2        21.5250  -11.1640   23.6750 H     648  WAT648      0.2052
   1942  O         20.7180   -5.5230   26.3700 O.3   649  WAT649     -0.4105
   1943  H1        20.3110   -5.3810   25.5150 H     649  WAT649      0.2052
   1944  H2        21.6090   -5.8070   26.1670 H     649  WAT649      0.2052
   1945  O         24.9900   -1.3080   24.4820 O.3   650  WAT650     -0.4105
   1946  H1        24.8140   -2.2250   24.2690 H     650  WAT650      0.2052
   1947  H2        24.1360   -0.9490   24.7220 H     650  WAT650      0.2052
   1948  O         24.3010  -17.0510   27.5350 O.3   651  WAT651     -0.4105
   1949  H1        23.8580  -16.2700   27.2030 H     651  WAT651      0.2052
   1950  H2        24.8600  -16.7280   28.2420 H     651  WAT651      0.2052
   1951  O         27.4170  -17.4300   22.4150 O.3   652  WAT652     -0.4105
   1952  H1        26.7920  -17.4340   23.1410 H     652  WAT652      0.2052
   1953  H2        27.3300  -18.2970   22.0190 H     652  WAT652      0.2052
   1954  O         26.3390  -16.5060   29.3940 O.3   653  WAT653     -0.4105
   1955  H1        26.6360  -15.6000   29.3130 H     653  WAT653      0.2052
   1956  H2        26.8870  -16.9940   28.7800 H     653  WAT653      0.2052
   1957  O         24.0920  -11.9270   25.2630 O.3   654  WAT654     -0.4105
   1958  H1        23.8670  -12.1440   26.1680 H     654  WAT654      0.2052
   1959  H2        23.3120  -11.4950   24.9170 H     654  WAT654      0.2052
   1960  O         18.9650  -16.6950   28.1150 O.3   655  WAT655     -0.4105
   1961  H1        18.6760  -16.1240   28.8280 H     655  WAT655      0.2052
   1962  H2        19.7100  -17.1740   28.4780 H     655  WAT655      0.2052
   1963  O         19.1520  -12.7530   19.3260 O.3   656  WAT656     -0.4105
   1964  H1        19.0700  -11.8100   19.4670 H     656  WAT656      0.2052
   1965  H2        18.8000  -12.8950   18.4470 H     656  WAT656      0.2052
   1966  O         26.9520  -14.0190   28.3930 O.3   657  WAT657     -0.4105
   1967  H1        26.9560  -14.4600   27.5430 H     657  WAT657      0.2052
   1968  H2        27.8470  -13.6970   28.5000 H     657  WAT657      0.2052
   1969  O         22.8020  -14.1360   27.3520 O.3   658  WAT658     -0.4105
   1970  H1        22.4620  -13.6590   28.1090 H     658  WAT658      0.2052
   1971  H2        22.0400  -14.5900   26.9920 H     658  WAT658      0.2052
   1972  O         27.0140  -13.0170   21.3830 O.3   659  WAT659     -0.4105
   1973  H1        27.1350  -13.0590   22.3320 H     659  WAT659      0.2052
   1974  H2        26.6290  -12.1550   21.2280 H     659  WAT659      0.2052
   1975  O         26.0260  -10.7070   20.7820 O.3   660  WAT660     -0.4105
   1976  H1        25.4580  -11.1560   20.1550 H     660  WAT660      0.2052
   1977  H2        26.7350  -10.3480   20.2480 H     660  WAT660      0.2052
   1978  O         20.1170  -15.2140   26.2680 O.3   661  WAT661     -0.4105
   1979  H1        19.8320  -15.5790   27.1060 H     661  WAT661      0.2052
   1980  H2        20.0550  -15.9460   25.6550 H     661  WAT661      0.2052
   1981  O         23.5710   -6.7120   23.0540 O.3   662  WAT662     -0.4105
   1982  H1        22.7970   -7.2520   22.8940 H     662  WAT662      0.2052
   1983  H2        24.3000   -7.2310   22.7160 H     662  WAT662      0.2052
   1984  O         29.7910  -16.3210   22.9900 O.3   663  WAT663     -0.4105
   1985  H1        28.9770  -16.8200   22.9140 H     663  WAT663      0.2052
   1986  H2        29.5970  -15.4810   22.5730 H     663  WAT663      0.2052
   1987  O         23.6150   -7.0440   26.6920 O.3   664  WAT664     -0.4105
   1988  H1        24.1320   -7.8470   26.6380 H     664  WAT664      0.2052
   1989  H2        23.1630   -7.1060   27.5340 H     664  WAT664      0.2052
   1990  O         28.5020   -5.7770   21.9650 O.3   665  WAT665     -0.4105
   1991  H1        28.8430   -5.0330   21.4690 H     665  WAT665      0.2052
   1992  H2        27.6730   -5.4640   22.3270 H     665  WAT665      0.2052
   1993  O         27.4710   -5.6960   24.7360 O.3   666  WAT666     -0.4105
   1994  H1        28.1580   -5.1490   25.1170 H     666  WAT666      0.2052
   1995  H2        26.6840   -5.1510   24.7710 H     666  WAT666      0.2052
   1996  O         19.6100  -10.0780   20.2280 O.3   667  WAT667     -0.4105
   1997  H1        20.4790   -9.7960   20.5120 H     667  WAT667      0.2052
   1998  H2        19.1190   -9.2650   20.1130 H     667  WAT667      0.2052
   1999  O         26.7730   -8.6910   24.3490 O.3   668  WAT668     -0.4105
   2000  H1        27.2300   -7.8800   24.5750 H     668  WAT668      0.2052
   2001  H2        26.4220   -9.0090   25.1810 H     668  WAT668      0.2052
   2002  O         22.6750  -18.3470   24.8210 O.3   669  WAT669     -0.4105
   2003  H1        22.5460  -18.3550   25.7700 H     669  WAT669      0.2052
   2004  H2        21.8510  -18.0090   24.4700 H     669  WAT669      0.2052
   2005  O         19.9770   -0.8660   20.7940 O.3   670  WAT670     -0.4105
   2006  H1        20.3370   -0.2670   20.1400 H     670  WAT670      0.2052
   2007  H2        19.8360   -0.3200   21.5680 H     670  WAT670      0.2052
   2008  O         25.9940   -3.4820   21.6120 O.3   671  WAT671     -0.4105
   2009  H1        25.9850   -2.7490   20.9960 H     671  WAT671      0.2052
   2010  H2        25.0740   -3.7290   21.7040 H     671  WAT671      0.2052
   2011  O         21.5950   -8.2610   22.3560 O.3   672  WAT672     -0.4105
   2012  H1        20.9870   -7.5210   22.3660 H     672  WAT672      0.2052
   2013  H2        22.0690   -8.1710   21.5300 H     672  WAT672      0.2052
   2014  O         28.9800   -3.4200   20.2740 O.3   673  WAT673     -0.4105
   2015  H1        29.0810   -3.6230   19.3440 H     673  WAT673      0.2052
   2016  H2        28.0800   -3.6740   20.4790 H     673  WAT673      0.2052
   2017  O         26.5020  -12.8620   24.2570 O.3   674  WAT674     -0.4105
   2018  H1        25.7940  -12.3930   24.6980 H     674  WAT674      0.2052
   2019  H2        26.7870  -13.5190   24.8910 H     674  WAT674      0.2052
   2020  O         27.6220   -0.9010   24.9690 O.3   675  WAT675     -0.4105
   2021  H1        27.8760   -0.9390   24.0470 H     675  WAT675      0.2052
   2022  H2        26.6730   -1.0280   24.9620 H     675  WAT675      0.2052
   2023  O         24.7060  -14.5530   21.6320 O.3   676  WAT676     -0.4105
   2024  H1        25.5550  -14.1160   21.5660 H     676  WAT676      0.2052
   2025  H2        24.3390  -14.2410   22.4590 H     676  WAT676      0.2052
   2026  O         23.6050   -8.3000   20.1050 O.3   677  WAT677     -0.4105
   2027  H1        24.3710   -8.4120   20.6680 H     677  WAT677      0.2052
   2028  H2        23.6830   -8.9960   19.4530 H     677  WAT677      0.2052
   2029  O         22.3000  -10.8670   20.7890 O.3   678  WAT678     -0.4105
   2030  H1        22.3800  -11.8150   20.9000 H     678  WAT678      0.2052
   2031  H2        23.1920  -10.5370   20.8950 H     678  WAT678      0.2052
   2032  O         23.1010   -0.7180   27.8920 O.3   679  WAT679     -0.4105
   2033  H1        23.8370   -1.2660   28.1630 H     679  WAT679      0.2052
   2034  H2        23.4850    0.1480   27.7530 H     679  WAT679      0.2052
   2035  O         19.9860   -4.6500   23.7660 O.3   680  WAT680     -0.4105
   2036  H1        19.0600   -4.4080   23.7570 H     680  WAT680      0.2052
   2037  H2        20.4510   -3.8230   23.6450 H     680  WAT680      0.2052
   2038  O         26.2110   -1.5450   19.7150 O.3   681  WAT681     -0.4105
   2039  H1        27.0040   -1.2560   19.2630 H     681  WAT681      0.2052
   2040  H2        25.6920   -1.9760   19.0360 H     681  WAT681      0.2052
   2041  O         26.7290   -6.3240   19.5790 O.3   682  WAT682     -0.4105
   2042  H1        26.6240   -6.9390   20.3050 H     682  WAT682      0.2052
   2043  H2        26.5620   -6.8480   18.7950 H     682  WAT682      0.2052
   2044  O         25.6370   -8.3030   22.0790 O.3   683  WAT683     -0.4105
   2045  H1        26.0590   -8.4690   22.9230 H     683  WAT683      0.2052
   2046  H2        25.7620   -9.1130   21.5850 H     683  WAT683      0.2052
   2047  O         28.1500   -9.2800   19.3270 O.3   684  WAT684     -0.4105
   2048  H1        28.6700   -9.9950   18.9610 H     684  WAT684      0.2052
   2049  H2        28.7970   -8.6410   19.6270 H     684  WAT684      0.2052
   2050  O         24.5330  -12.2300   19.0250 O.3   685  WAT685     -0.4105
   2051  H1        24.3320  -13.0930   19.3870 H     685  WAT685      0.2052
   2052  H2        24.3620  -12.3170   18.0870 H     685  WAT685      0.2052
   2053  O         23.3310  -15.1300   19.0130 O.3   686  WAT686     -0.4105
   2054  H1        23.6340  -15.1230   18.1050 H     686  WAT686      0.2052
   2055  H2        24.0710  -15.4800   19.5100 H     686  WAT686      0.2052
   2056  O         26.5500  -16.1860   19.9990 O.3   687  WAT687     -0.4105
   2057  H1        26.2020  -16.8640   19.4190 H     687  WAT687      0.2052
   2058  H2        26.7510  -16.6470   20.8130 H     687  WAT687      0.2052
   2059  O         28.7150   -1.1980   21.6170 O.3   688  WAT688     -0.4105
   2060  H1        29.6100   -0.8600   21.6390 H     688  WAT688      0.2052
   2061  H2        28.7460   -1.9200   20.9900 H     688  WAT688      0.2052
   2062  O         22.3540   -5.8260   19.8460 O.3   689  WAT689     -0.4105
   2063  H1        22.7920   -5.2830   20.5020 H     689  WAT689      0.2052
   2064  H2        22.8390   -6.6510   19.8560 H     689  WAT689      0.2052
   2065  O         19.5690   -3.0370   27.2980 O.3   690  WAT690     -0.4105
   2066  H1        19.8990   -3.9050   27.0660 H     690  WAT690      0.2052
   2067  H2        19.9980   -2.8310   28.1290 H     690  WAT690      0.2052
   2068  O         24.1650   -4.7060   24.9580 O.3   691  WAT691     -0.4105
   2069  H1        23.8640   -4.8290   25.8590 H     691  WAT691      0.2052
   2070  H2        24.0590   -5.5650   24.5500 H     691  WAT691      0.2052
   2071  O         19.8900   -9.6580   26.3950 O.3   692  WAT692     -0.4105
   2072  H1        19.2350   -9.9270   25.7510 H     692  WAT692      0.2052
   2073  H2        20.7280   -9.7670   25.9450 H     692  WAT692      0.2052
   2074  O         19.1040  -12.4480   22.3380 O.3   693  WAT693     -0.4105
   2075  H1        18.2000  -12.1850   22.1630 H     693  WAT693      0.2052
   2076  H2        19.5880  -12.1770   21.5580 H     693  WAT693      0.2052
   2077  O         21.6470  -13.3910   20.2470 O.3   694  WAT694     -0.4105
   2078  H1        22.3560  -13.8130   19.7620 H     694  WAT694      0.2052
   2079  H2        20.9310  -13.3240   19.6150 H     694  WAT694      0.2052
   2080  O         21.2940  -17.3370   19.2870 O.3   695  WAT695     -0.4105
   2081  H1        22.0170  -16.7960   19.6060 H     695  WAT695      0.2052
   2082  H2        21.5670  -17.6110   18.4120 H     695  WAT695      0.2052
   2083  O         20.9830  -18.0870   29.1900 O.3   696  WAT696     -0.4105
   2084  H1        21.6310  -18.6370   28.7490 H     696  WAT696      0.2052
   2085  H2        21.4040  -17.8320   30.0110 H     696  WAT696      0.2052
   2086  O         25.4180   -2.2330   28.9530 O.3   697  WAT697     -0.4105
   2087  H1        25.9340   -2.8440   28.4280 H     697  WAT697      0.2052
   2088  H2        26.0670   -1.7300   29.4440 H     697  WAT697      0.2052
   2089  O         20.0960   -1.1300   25.3780 O.3   698  WAT698     -0.4105
   2090  H1        19.9280   -1.7630   26.0760 H     698  WAT698      0.2052
   2091  H2        19.2290   -0.9240   25.0270 H     698  WAT698      0.2052
   2092  O         20.7190  -17.2980   22.8810 O.3   699  WAT699     -0.4105
   2093  H1        21.4770  -17.1850   22.3070 H     699  WAT699      0.2052
   2094  H2        20.2570  -16.4610   22.8350 H     699  WAT699      0.2052
   2095  O         27.2600  -15.1840   25.8710 O.3   700  WAT700     -0.4105
   2096  H1        26.4480  -15.5580   25.5310 H     700  WAT700      0.2052
   2097  H2        27.7640  -15.9400   26.1730 H     700  WAT700      0.2052
   2098  O         21.7020   -2.4360   22.8230 O.3   701  WAT701     -0.4105
   2099  H1        21.1770   -2.0560   22.1190 H     701  WAT701      0.2052
   2100  H2        21.6270   -1.8110   23.5440 H     701  WAT701      0.2052
   2101  O         23.0910  -16.7720   21.4210 O.3   702  WAT702     -0.4105
   2102  H1        23.6210  -17.5590   21.2920 H     702  WAT702      0.2052
   2103  H2        23.7240  -16.0920   21.6550 H     702  WAT702      0.2052
   2104  O         25.2850  -17.0340   24.4760 O.3   703  WAT703     -0.4105
   2105  H1        24.6550  -17.7350   24.6430 H     703  WAT703      0.2052
   2106  H2        24.7460  -16.2740   24.2590 H     703  WAT703      0.2052
   2107  O         24.3020   -0.4880   21.6980 O.3   704  WAT704     -0.4105
   2108  H1        25.0330   -0.7720   21.1500 H     704  WAT704      0.2052
   2109  H2        24.5610   -0.7270   22.5880 H     704  WAT704      0.2052
   2110  O         23.4630   -4.3720   21.7020 O.3   705  WAT705     -0.4105
   2111  H1        22.8340   -3.9030   22.2510 H     705  WAT705      0.2052
   2112  H2        23.5780   -5.2170   22.1370 H     705  WAT705      0.2052
   2113  O         29.0500   -8.5430    9.7330 O.3   706  WAT706     -0.4105
   2114  H1        28.2740   -9.0230   10.0230 H     706  WAT706      0.2052
   2115  H2        29.7010   -9.2230    9.5590 H     706  WAT706      0.2052
   2116  O         23.0660   -8.2310   10.6110 O.3   707  WAT707     -0.4105
   2117  H1        22.2350   -8.4860   11.0110 H     707  WAT707      0.2052
   2118  H2        23.6750   -8.1600   11.3470 H     707  WAT707      0.2052
   2119  O         23.0470   -4.1970   10.8070 O.3   708  WAT708     -0.4105
   2120  H1        23.3490   -5.0870   10.6280 H     708  WAT708      0.2052
   2121  H2        23.7910   -3.6400   10.5790 H     708  WAT708      0.2052
   2122  O         21.4760  -13.2710    4.3950 O.3   709  WAT709     -0.4105
   2123  H1        20.5870  -12.9290    4.2930 H     709  WAT709      0.2052
   2124  H2        21.7600  -13.4710    3.5030 H     709  WAT709      0.2052
   2125  O         19.4390  -10.6700   10.2790 O.3   710  WAT710     -0.4105
   2126  H1        20.0110  -11.4380   10.2800 H     710  WAT710      0.2052
   2127  H2        19.4390  -10.3720    9.3700 H     710  WAT710      0.2052
   2128  O         28.4910   -5.8670    9.7400 O.3   711  WAT711     -0.4105
   2129  H1        28.4220   -6.8080    9.5790 H     711  WAT711      0.2052
   2130  H2        29.2530   -5.7770   10.3130 H     711  WAT711      0.2052
   2131  O         20.6810  -15.2620   12.0660 O.3   712  WAT712     -0.4105
   2132  H1        20.5020  -16.1590   12.3460 H     712  WAT712      0.2052
   2133  H2        20.2790  -14.7150   12.7410 H     712  WAT712      0.2052
   2134  O         29.5210  -13.0600    9.9670 O.3   713  WAT713     -0.4105
   2135  H1        29.8980  -13.9330    9.8550 H     713  WAT713      0.2052
   2136  H2        29.4230  -12.7250    9.0760 H     713  WAT713      0.2052
   2137  O         23.6520  -14.6880    5.4290 O.3   714  WAT714     -0.4105
   2138  H1        23.7580  -13.7870    5.7360 H     714  WAT714      0.2052
   2139  H2        22.7410  -14.7360    5.1380 H     714  WAT714      0.2052
   2140  O         21.3000  -12.7660   10.6740 O.3   715  WAT715     -0.4105
   2141  H1        21.9810  -12.5020   11.2930 H     715  WAT715      0.2052
   2142  H2        20.9850  -13.6060   11.0080 H     715  WAT715      0.2052
   2143  O         25.4930  -11.7190    9.7620 O.3   716  WAT716     -0.4105
   2144  H1        26.0000  -11.2210   10.4020 H     716  WAT716      0.2052
   2145  H2        26.0240  -12.4960    9.5850 H     716  WAT716      0.2052
   2146  O         23.7760  -17.0790   14.0280 O.3   717  WAT717     -0.4105
   2147  H1        23.7780  -16.5620   13.2220 H     717  WAT717      0.2052
   2148  H2        22.9470  -17.5560   14.0050 H     717  WAT717      0.2052
   2149  O         25.0260   -7.4400   12.2050 O.3   718  WAT718     -0.4105
   2150  H1        24.6930   -6.8130   12.8470 H     718  WAT718      0.2052
   2151  H2        25.2030   -6.9140   11.4250 H     718  WAT718      0.2052
   2152  O         23.4580  -15.3680   12.0350 O.3   719  WAT719     -0.4105
   2153  H1        23.7990  -14.5240   11.7400 H     719  WAT719      0.2052
   2154  H2        22.5190  -15.2200   12.1510 H     719  WAT719      0.2052
   2155  O         24.2380   -5.4720   14.0200 O.3   720  WAT720     -0.4105
   2156  H1        24.8560   -4.7970   13.7390 H     720  WAT720      0.2052
   2157  H2        23.3780   -5.0630   13.9290 H     720  WAT720      0.2052
   2158  O         19.5320   -6.2820    2.9010 O.3   721  WAT721     -0.4105
   2159  H1        19.1540   -5.7930    2.1690 H     721  WAT721      0.2052
   2160  H2        19.7890   -5.6090    3.5310 H     721  WAT721      0.2052
   2161  O         27.1400  -17.8800    8.3590 O.3   722  WAT722     -0.4105
   2162  H1        27.4480  -18.4350    7.6430 H     722  WAT722      0.2052
   2163  H2        26.2110  -17.7460    8.1770 H     722  WAT722      0.2052
   2164  O         29.5290   -9.8150    5.0950 O.3   723  WAT723     -0.4105
   2165  H1        28.6010   -9.8810    5.3240 H     723  WAT723      0.2052
   2166  H2        29.6810   -8.8770    4.9810 H     723  WAT723      0.2052
   2167  O         29.5150  -13.5440    2.0920 O.3   724  WAT724     -0.4105
   2168  H1        28.5760  -13.3820    2.1770 H     724  WAT724      0.2052
   2169  H2        29.8340  -12.8250    1.5460 H     724  WAT724      0.2052
   2170  O         25.1340   -9.2890    7.8770 O.3   725  WAT725     -0.4105
   2171  H1        24.7300  -10.0010    7.3820 H     725  WAT725      0.2052
   2172  H2        25.2210   -9.6330    8.7660 H     725  WAT725      0.2052
   2173  O         25.6020   -5.6020   10.0410 O.3   726  WAT726     -0.4105
   2174  H1        25.3050   -6.2070    9.3620 H     726  WAT726      0.2052
   2175  H2        26.5520   -5.5640    9.9300 H     726  WAT726      0.2052
   2176  O         23.8470  -12.5140   11.6570 O.3   727  WAT727     -0.4105
   2177  H1        24.3990  -12.4050   10.8830 H     727  WAT727      0.2052
   2178  H2        24.3610  -12.1410   12.3730 H     727  WAT727      0.2052
   2179  O         24.6940   -5.8640   16.6920 O.3   728  WAT728     -0.4105
   2180  H1        23.7970   -5.6400   16.9390 H     728  WAT728      0.2052
   2181  H2        24.7200   -5.7400   15.7430 H     728  WAT728      0.2052
   2182  O         23.5210   -8.9920   15.2680 O.3   729  WAT729     -0.4105
   2183  H1        23.3820   -8.1200   15.6370 H     729  WAT729      0.2052
   2184  H2        22.6390   -9.3350   15.1230 H     729  WAT729      0.2052
   2185  O         25.3190   -3.0500   17.4760 O.3   730  WAT730     -0.4105
   2186  H1        25.2910   -2.6460   16.6090 H     730  WAT730      0.2052
   2187  H2        25.1560   -3.9790   17.3130 H     730  WAT730      0.2052
   2188  O         21.8350  -10.3940    5.3780 O.3   731  WAT731     -0.4105
   2189  H1        21.7140   -9.6680    4.7660 H     731  WAT731      0.2052
   2190  H2        21.5250  -11.1640    4.9010 H     731  WAT731      0.2052
   2191  O         19.4730   -7.2230   11.1850 O.3   732  WAT732     -0.4105
   2192  H1        19.5510   -7.0880   10.2400 H     732  WAT732      0.2052
   2193  H2        20.0870   -7.9310   11.3780 H     732  WAT732      0.2052
   2194  O         20.7180   -5.5230    7.5960 O.3   733  WAT733     -0.4105
   2195  H1        20.3110   -5.3810    6.7410 H     733  WAT733      0.2052
   2196  H2        21.6090   -5.8070    7.3930 H     733  WAT733      0.2052
   2197  O         24.9900   -1.3080    5.7080 O.3   734  WAT734     -0.4105
   2198  H1        24.8140   -2.2250    5.4950 H     734  WAT734      0.2052
   2199  H2        24.1360   -0.9490    5.9480 H     734  WAT734      0.2052
   2200  O         19.5290   -6.1810   13.7240 O.3   735  WAT735     -0.4105
   2201  H1        19.6920   -6.6510   12.9060 H     735  WAT735      0.2052
   2202  H2        19.9940   -6.6890   14.3890 H     735  WAT735      0.2052
   2203  O         24.3010  -17.0510    8.7600 O.3   736  WAT736     -0.4105
   2204  H1        23.8580  -16.2700    8.4290 H     736  WAT736      0.2052
   2205  H2        24.8600  -16.7280    9.4680 H     736  WAT736      0.2052
   2206  O         28.5880  -14.1840   14.3640 O.3   737  WAT737     -0.4105
   2207  H1        28.1260  -13.9760   15.1760 H     737  WAT737      0.2052
   2208  H2        28.1860  -14.9980   14.0610 H     737  WAT737      0.2052
   2209  O         27.4170  -17.4300    3.6410 O.3   738  WAT738     -0.4105
   2210  H1        26.7920  -17.4340    4.3660 H     738  WAT738      0.2052
   2211  H2        27.3300  -18.2970    3.2450 H     738  WAT738      0.2052
   2212  O         26.3390  -16.5060   10.6190 O.3   739  WAT739     -0.4105
   2213  H1        26.6360  -15.6000   10.5390 H     739  WAT739      0.2052
   2214  H2        26.8870  -16.9940   10.0050 H     739  WAT739      0.2052
   2215  O         24.0920  -11.9270    6.4890 O.3   740  WAT740     -0.4105
   2216  H1        23.8670  -12.1440    7.3930 H     740  WAT740      0.2052
   2217  H2        23.3120  -11.4950    6.1430 H     740  WAT740      0.2052
   2218  O         26.5320  -11.0290   17.1550 O.3   741  WAT741     -0.4105
   2219  H1        26.4370  -11.9690   17.0050 H     741  WAT741      0.2052
   2220  H2        27.3760  -10.8070   16.7590 H     741  WAT741      0.2052
   2221  O         21.6630  -14.6170   15.3080 O.3   742  WAT742     -0.4105
   2222  H1        21.2700  -13.7700   15.5150 H     742  WAT742      0.2052
   2223  H2        20.9750  -15.2550   15.4990 H     742  WAT742      0.2052
   2224  O         28.2380  -14.5340   18.3780 O.3   743  WAT743     -0.4105
   2225  H1        27.5480  -14.7270   19.0120 H     743  WAT743      0.2052
   2226  H2        28.9810  -14.2510   18.9100 H     743  WAT743      0.2052
   2227  O         18.9650  -16.6950    9.3410 O.3   744  WAT744     -0.4105
   2228  H1        18.6760  -16.1240   10.0530 H     744  WAT744      0.2052
   2229  H2        19.7100  -17.1740    9.7040 H     744  WAT744      0.2052
   2230  O         19.1520  -12.7530    0.5510 O.3   745  WAT745     -0.4105
   2231  H1        19.0700  -11.8100    0.6930 H     745  WAT745      0.2052
   2232  H2        18.8000  -12.8950   -0.3280 H     745  WAT745      0.2052
   2233  O         26.9520  -14.0190    9.6180 O.3   746  WAT746     -0.4105
   2234  H1        26.9560  -14.4600    8.7690 H     746  WAT746      0.2052
   2235  H2        27.8470  -13.6970    9.7250 H     746  WAT746      0.2052
   2236  O         22.8020  -14.1360    8.5780 O.3   747  WAT747     -0.4105
   2237  H1        22.4620  -13.6590    9.3340 H     747  WAT747      0.2052
   2238  H2        22.0400  -14.5900    8.2180 H     747  WAT747      0.2052
   2239  O         27.0140  -13.0170    2.6090 O.3   748  WAT748     -0.4105
   2240  H1        27.1350  -13.0590    3.5580 H     748  WAT748      0.2052
   2241  H2        26.6290  -12.1550    2.4540 H     748  WAT748      0.2052
   2242  O         26.0260  -10.7070    2.0070 O.3   749  WAT749     -0.4105
   2243  H1        25.4580  -11.1560    1.3810 H     749  WAT749      0.2052
   2244  H2        26.7350  -10.3480    1.4740 H     749  WAT749      0.2052
   2245  O         21.1030   -6.8060   15.8840 O.3   750  WAT750     -0.4105
   2246  H1        20.7190   -7.4470   16.4820 H     750  WAT750      0.2052
   2247  H2        21.4140   -6.1030   16.4530 H     750  WAT750      0.2052
   2248  O         27.2530   -9.9590   11.3650 O.3   751  WAT751     -0.4105
   2249  H1        27.6200  -10.4330   12.1110 H     751  WAT751      0.2052
   2250  H2        27.0630   -9.0840   11.7060 H     751  WAT751      0.2052
   2251  O         20.1170  -15.2140    7.4940 O.3   752  WAT752     -0.4105
   2252  H1        19.8320  -15.5790    8.3320 H     752  WAT752      0.2052
   2253  H2        20.0550  -15.9460    6.8800 H     752  WAT752      0.2052
   2254  O         25.0430  -10.9180   13.6830 O.3   753  WAT753     -0.4105
   2255  H1        24.7380  -10.0380   13.9080 H     753  WAT753      0.2052
   2256  H2        25.9970  -10.8580   13.7190 H     753  WAT753      0.2052
   2257  O         23.5710   -6.7120    4.2800 O.3   754  WAT754     -0.4105
   2258  H1        22.7970   -7.2520    4.1200 H     754  WAT754      0.2052
   2259  H2        24.3000   -7.2310    3.9420 H     754  WAT754      0.2052
   2260  O         29.7910  -16.3210    4.2150 O.3   755  WAT755     -0.4105
   2261  H1        28.9770  -16.8200    4.1400 H     755  WAT755      0.2052
   2262  H2        29.5970  -15.4810    3.7990 H     755  WAT755      0.2052
   2263  O         29.7120   -7.6440   15.9590 O.3   756  WAT756     -0.4105
   2264  H1        29.6450   -8.5650   15.7050 H     756  WAT756      0.2052
   2265  H2        29.0820   -7.5470   16.6740 H     756  WAT756      0.2052
   2266  O         23.6150   -7.0440    7.9180 O.3   757  WAT757     -0.4105
   2267  H1        24.1320   -7.8470    7.8630 H     757  WAT757      0.2052
   2268  H2        23.1630   -7.1060    8.7590 H     757  WAT757      0.2052
   2269  O         28.5020   -5.7770    3.1910 O.3   758  WAT758     -0.4105
   2270  H1        28.8430   -5.0330    2.6950 H     758  WAT758      0.2052
   2271  H2        27.6730   -5.4640    3.5530 H     758  WAT758      0.2052
   2272  O         21.0990  -10.0770   14.8300 O.3   759  WAT759     -0.4105
   2273  H1        20.7410   -9.4120   15.4180 H     759  WAT759      0.2052
   2274  H2        20.8050  -10.9090   15.2020 H     759  WAT759      0.2052
   2275  O         24.3000   -9.6190   17.7140 O.3   760  WAT760     -0.4105
   2276  H1        24.0000   -9.4730   16.8170 H     760  WAT760      0.2052
   2277  H2        25.0720  -10.1780   17.6220 H     760  WAT760      0.2052
   2278  O         29.6430   -4.8220   15.7100 O.3   761  WAT761     -0.4105
   2279  H1        29.6580   -5.7540   15.4920 H     761  WAT761      0.2052
   2280  H2        28.9360   -4.7360   16.3490 H     761  WAT761      0.2052
   2281  O         27.4710   -5.6960    5.9620 O.3   762  WAT762     -0.4105
   2282  H1        28.1580   -5.1490    6.3430 H     762  WAT762      0.2052
   2283  H2        26.6840   -5.1510    5.9970 H     762  WAT762      0.2052
   2284  O         19.6100  -10.0780    1.4540 O.3   763  WAT763     -0.4105
   2285  H1        20.4790   -9.7960    1.7370 H     763  WAT763      0.2052
   2286  H2        19.1190   -9.2650    1.3390 H     763  WAT763      0.2052
   2287  O         26.7730   -8.6910    5.5750 O.3   764  WAT764     -0.4105
   2288  H1        27.2300   -7.8800    5.8010 H     764  WAT764      0.2052
   2289  H2        26.4220   -9.0090    6.4060 H     764  WAT764      0.2052
   2290  O         29.0770   -3.1800   12.8040 O.3   765  WAT765     -0.4105
   2291  H1        29.7210   -2.9740   13.4810 H     765  WAT765      0.2052
   2292  H2        29.4400   -3.9410   12.3510 H     765  WAT765      0.2052
   2293  O         22.6750  -18.3470    6.0470 O.3   766  WAT766     -0.4105
   2294  H1        22.5460  -18.3550    6.9950 H     766  WAT766      0.2052
   2295  H2        21.8510  -18.0090    5.6960 H     766  WAT766      0.2052
   2296  O         19.9770   -0.8660    2.0200 O.3   767  WAT767     -0.4105
   2297  H1        20.3370   -0.2670    1.3660 H     767  WAT767      0.2052
   2298  H2        19.8360   -0.3200    2.7930 H     767  WAT767      0.2052
   2299  O         19.6740  -16.5880   15.5080 O.3   768  WAT768     -0.4105
   2300  H1        18.9600  -16.3880   16.1130 H     768  WAT768      0.2052
   2301  H2        20.0930  -17.3640   15.8790 H     768  WAT768      0.2052
   2302  O         19.9610   -2.6000   16.4940 O.3   769  WAT769     -0.4105
   2303  H1        20.0700   -3.5410   16.3540 H     769  WAT769      0.2052
   2304  H2        19.3090   -2.3350   15.8460 H     769  WAT769      0.2052
   2305  O         27.9520   -4.3280   17.8940 O.3   770  WAT770     -0.4105
   2306  H1        27.6320   -5.0480   18.4390 H     770  WAT770      0.2052
   2307  H2        27.2780   -3.6530   17.9680 H     770  WAT770      0.2052
   2308  O         25.9940   -3.4820    2.8370 O.3   771  WAT771     -0.4105
   2309  H1        25.9850   -2.7490    2.2220 H     771  WAT771      0.2052
   2310  H2        25.0740   -3.7290    2.9300 H     771  WAT771      0.2052
   2311  O         21.5950   -8.2610    3.5820 O.3   772  WAT772     -0.4105
   2312  H1        20.9870   -7.5210    3.5920 H     772  WAT772      0.2052
   2313  H2        22.0690   -8.1710    2.7560 H     772  WAT772      0.2052
   2314  O         28.9800   -3.4200    1.5000 O.3   773  WAT773     -0.4105
   2315  H1        29.0810   -3.6230    0.5700 H     773  WAT773      0.2052
   2316  H2        28.0800   -3.6740    1.7050 H     773  WAT773      0.2052
   2317  O         26.5020  -12.8620    5.4820 O.3   774  WAT774     -0.4105
   2318  H1        25.7940  -12.3930    5.9240 H     774  WAT774      0.2052
   2319  H2        26.7870  -13.5190    6.1170 H     774  WAT774      0.2052
   2320  O         28.1280  -11.4420   13.4820 O.3   775  WAT775     -0.4105
   2321  H1        28.6270  -10.9670   14.1470 H     775  WAT775      0.2052
   2322  H2        28.2700  -12.3660   13.6890 H     775  WAT775      0.2052
   2323  O         27.6220   -0.9010    6.1950 O.3   776  WAT776     -0.4105
   2324  H1        27.8760   -0.9390    5.2730 H     776  WAT776      0.2052
   2325  H2        26.6730   -1.0280    6.1870 H     776  WAT776      0.2052
   2326  O         24.7060  -14.5530    2.8570 O.3   777  WAT777     -0.4105
   2327  H1        25.5550  -14.1160    2.7910 H     777  WAT777      0.2052
   2328  H2        24.3390  -14.2410    3.6850 H     777  WAT777      0.2052
   2329  O         23.6050   -8.3000    1.3310 O.3   778  WAT778     -0.4105
   2330  H1        24.3710   -8.4120    1.8930 H     778  WAT778      0.2052
   2331  H2        23.6830   -8.9960    0.6790 H     778  WAT778      0.2052
   2332  O         22.3000  -10.8670    2.0140 O.3   779  WAT779     -0.4105
   2333  H1        22.3800  -11.8150    2.1260 H     779  WAT779      0.2052
   2334  H2        23.1920  -10.5370    2.1200 H     779  WAT779      0.2052
   2335  O         23.1010   -0.7180    9.1180 O.3   780  WAT780     -0.4105
   2336  H1        23.8370   -1.2660    9.3880 H     780  WAT780      0.2052
   2337  H2        23.4850    0.1480    8.9780 H     780  WAT780      0.2052
   2338  O         19.9860   -4.6500    4.9920 O.3   781  WAT781     -0.4105
   2339  H1        19.0600   -4.4080    4.9820 H     781  WAT781      0.2052
   2340  H2        20.4510   -3.8230    4.8700 H     781  WAT781      0.2052
   2341  O         22.1070   -1.5330   18.3060 O.3   782  WAT782     -0.4105
   2342  H1        22.9080   -1.2120   18.7200 H     782  WAT782      0.2052
   2343  H2        21.5920   -1.8940   19.0280 H     782  WAT782      0.2052
   2344  O         26.2110   -1.5450    0.9400 O.3   783  WAT783     -0.4105
   2345  H1        27.0040   -1.2560    0.4880 H     783  WAT783      0.2052
   2346  H2        25.6920   -1.9760    0.2610 H     783  WAT783      0.2052
   2347  O         19.8270   -9.0460   17.2500 O.3   784  WAT784     -0.4105
   2348  H1        20.3310   -9.6250   17.8210 H     784  WAT784      0.2052
   2349  H2        19.0880   -8.7620   17.7870 H     784  WAT784      0.2052
   2350  O         26.7290   -6.3240    0.8040 O.3   785  WAT785     -0.4105
   2351  H1        26.6240   -6.9390    1.5310 H     785  WAT785      0.2052
   2352  H2        26.5620   -6.8480    0.0210 H     785  WAT785      0.2052
   2353  O         26.8810   -7.6390   16.7830 O.3   786  WAT786     -0.4105
   2354  H1        26.1150   -7.0700   16.6990 H     786  WAT786      0.2052
   2355  H2        27.0620   -7.9310   15.8900 H     786  WAT786      0.2052
   2356  O         21.8590  -10.9030   18.1450 O.3   787  WAT787     -0.4105
   2357  H1        21.9000  -11.2010   19.0530 H     787  WAT787      0.2052
   2358  H2        22.7140  -10.5020   17.9860 H     787  WAT787      0.2052
   2359  O         25.6370   -8.3030    3.3050 O.3   788  WAT788     -0.4105
   2360  H1        26.0590   -8.4690    4.1480 H     788  WAT788      0.2052
   2361  H2        25.7620   -9.1130    2.8110 H     788  WAT788      0.2052
   2362  O         23.8000  -12.3240   16.1120 O.3   789  WAT789     -0.4105
   2363  H1        23.2690  -12.8150   15.4850 H     789  WAT789      0.2052
   2364  H2        24.4690  -11.8950   15.5780 H     789  WAT789      0.2052
   2365  O         28.1500   -9.2800    0.5530 O.3   790  WAT790     -0.4105
   2366  H1        28.6700   -9.9950    0.1870 H     790  WAT790      0.2052
   2367  H2        28.7970   -8.6410    0.8530 H     790  WAT790      0.2052
   2368  O         24.2870  -15.3570   16.1920 O.3   791  WAT791     -0.4105
   2369  H1        24.1930  -15.9750   15.4670 H     791  WAT791      0.2052
   2370  H2        23.7070  -14.6310   15.9650 H     791  WAT791      0.2052
   2371  O         27.0530  -16.8000   13.2250 O.3   792  WAT792     -0.4105
   2372  H1        26.6050  -16.7780   12.3790 H     792  WAT792      0.2052
   2373  H2        26.4200  -17.1980   13.8220 H     792  WAT792      0.2052
   2374  O         27.4590   -7.9050   13.8460 O.3   793  WAT793     -0.4105
   2375  H1        27.8780   -7.0610   13.6740 H     793  WAT793      0.2052
   2376  H2        26.5400   -7.7670   13.6170 H     793  WAT793      0.2052
   2377  O         24.5330  -12.2300    0.2510 O.3   794  WAT794     -0.4105
   2378  H1        24.3320  -13.0930    0.6120 H     794  WAT794      0.2052
   2379  H2        24.3620  -12.3170   -0.6870 H     794  WAT794      0.2052
   2380  O         25.3100   -1.5990   14.9620 O.3   795  WAT795     -0.4105
   2381  H1        24.7720   -0.8750   14.6430 H     795  WAT795      0.2052
   2382  H2        25.5630   -2.0760   14.1710 H     795  WAT795      0.2052
   2383  O         26.5620  -13.6310   16.4870 O.3   796  WAT796     -0.4105
   2384  H1        27.1520  -13.9390   17.1750 H     796  WAT796      0.2052
   2385  H2        25.7440  -14.1030   16.6430 H     796  WAT796      0.2052
   2386  O         23.3310  -15.1300    0.2390 O.3   797  WAT797     -0.4105
   2387  H1        23.6340  -15.1230   -0.6690 H     797  WAT797      0.2052
   2388  H2        24.0710  -15.4800    0.7360 H     797  WAT797      0.2052
   2389  O         28.1660   -0.3640   15.2200 O.3   798  WAT798     -0.4105
   2390  H1        28.0920    0.5390   15.5280 H     798  WAT798      0.2052
   2391  H2        27.2640   -0.6830   15.1930 H     798  WAT798      0.2052
   2392  O         26.5500  -16.1860    1.2240 O.3   799  WAT799     -0.4105
   2393  H1        26.2020  -16.8640    0.6450 H     799  WAT799      0.2052
   2394  H2        26.7510  -16.6470    2.0390 H     799  WAT799      0.2052
   2395  O         28.7150   -1.1980    2.8430 O.3   800  WAT800     -0.4105
   2396  H1        29.6100   -0.8600    2.8650 H     800  WAT800      0.2052
   2397  H2        28.7460   -1.9200    2.2150 H     800  WAT800      0.2052
   2398  O         22.3540   -5.8260    1.0720 O.3   801  WAT801     -0.4105
   2399  H1        22.7920   -5.2830    1.7270 H     801  WAT801      0.2052
   2400  H2        22.8390   -6.6510    1.0810 H     801  WAT801      0.2052
   2401  O         19.5690   -3.0370    8.5240 O.3   802  WAT802     -0.4105
   2402  H1        19.8990   -3.9050    8.2920 H     802  WAT802      0.2052
   2403  H2        19.9980   -2.8310    9.3540 H     802  WAT802      0.2052
   2404  O         24.1650   -4.7060    6.1840 O.3   803  WAT803     -0.4105
   2405  H1        23.8640   -4.8290    7.0840 H     803  WAT803      0.2052
   2406  H2        24.0590   -5.5650    5.7760 H     803  WAT803      0.2052
   2407  O         20.0580   -2.1700   11.2620 O.3   804  WAT804     -0.4105
   2408  H1        19.6210   -1.9900   12.0940 H     804  WAT804      0.2052
   2409  H2        20.6260   -1.4120   11.1200 H     804  WAT804      0.2052
   2410  O         19.8900   -9.6580    7.6210 O.3   805  WAT805     -0.4105
   2411  H1        19.2350   -9.9270    6.9770 H     805  WAT805      0.2052
   2412  H2        20.7280   -9.7670    7.1710 H     805  WAT805      0.2052
   2413  O         20.9280   -9.2720   12.1610 O.3   806  WAT806     -0.4105
   2414  H1        21.2950   -9.3600   13.0410 H     806  WAT806      0.2052
   2415  H2        20.3590  -10.0360   12.0620 H     806  WAT806      0.2052
   2416  O         20.4790  -12.3620   16.0670 O.3   807  WAT807     -0.4105
   2417  H1        19.5850  -12.3950   16.4060 H     807  WAT807      0.2052
   2418  H2        21.0190  -12.1630   16.8320 H     807  WAT807      0.2052
   2419  O         19.1040  -12.4480    3.5630 O.3   808  WAT808     -0.4105
   2420  H1        18.2000  -12.1850    3.3890 H     808  WAT808      0.2052
   2421  H2        19.5880  -12.1770    2.7830 H     808  WAT808      0.2052
   2422  O         21.6470  -13.3910    1.4730 O.3   809  WAT809     -0.4105
   2423  H1        22.3560  -13.8130    0.9880 H     809  WAT809      0.2052
   2424  H2        20.9310  -13.3240    0.8410 H     809  WAT809      0.2052
   2425  O         21.2940  -17.3370    0.5130 O.3   810  WAT810     -0.4105
   2426  H1        22.0170  -16.7960    0.8310 H     810  WAT810      0.2052
   2427  H2        21.5670  -17.6110   -0.3630 H     810  WAT810      0.2052
   2428  O         20.9830  -18.0870   10.4150 O.3   811  WAT811     -0.4105
   2429  H1        21.6310  -18.6370    9.9750 H     811  WAT811      0.2052
   2430  H2        21.4040  -17.8320   11.2370 H     811  WAT811      0.2052
   2431  O         20.7370  -17.9310   13.1580 O.3   812  WAT812     -0.4105
   2432  H1        20.3880  -17.4750   13.9240 H     812  WAT812      0.2052
   2433  H2        20.4050  -18.8250   13.2400 H     812  WAT812      0.2052
   2434  O         22.3430   -4.7590   17.3230 O.3   813  WAT813     -0.4105
   2435  H1        22.3000   -5.1300   18.2050 H     813  WAT813      0.2052
   2436  H2        22.4740   -3.8210   17.4630 H     813  WAT813      0.2052
   2437  O         26.0440   -3.2030   12.9240 O.3   814  WAT814     -0.4105
   2438  H1        25.8030   -2.9360   12.0370 H     814  WAT814      0.2052
   2439  H2        26.9840   -3.0330   12.9790 H     814  WAT814      0.2052
   2440  O         28.2490  -16.7400   16.6800 O.3   815  WAT815     -0.4105
   2441  H1        28.1880  -16.1480   17.4290 H     815  WAT815      0.2052
   2442  H2        29.1890  -16.8470   16.5350 H     815  WAT815      0.2052
   2443  O         21.4090  -18.4030   16.4330 O.3   816  WAT816     -0.4105
   2444  H1        21.9570  -18.5850   15.6700 H     816  WAT816      0.2052
   2445  H2        21.4740  -19.1940   16.9690 H     816  WAT816      0.2052
   2446  O         22.1820   -1.8130   14.4430 O.3   817  WAT817     -0.4105
   2447  H1        21.5880   -1.9440   15.1820 H     817  WAT817      0.2052
   2448  H2        22.1740   -2.6490   13.9770 H     817  WAT817      0.2052
   2449  O         21.8130   -4.4470   13.3940 O.3   818  WAT818     -0.4105
   2450  H1        21.0860   -5.0670   13.3260 H     818  WAT818      0.2052
   2451  H2        21.8740   -4.0530   12.5240 H     818  WAT818      0.2052
   2452  O         25.4180   -2.2330   10.1790 O.3   819  WAT819     -0.4105
   2453  H1        25.9340   -2.8440    9.6540 H     819  WAT819      0.2052
   2454  H2        26.0670   -1.7300   10.6700 H     819  WAT819      0.2052
   2455  O         28.1570   -1.3420   11.0060 O.3   820  WAT820     -0.4105
   2456  H1        28.4450   -1.5960   10.1290 H     820  WAT820      0.2052
   2457  H2        28.6690   -1.8940   11.5960 H     820  WAT820      0.2052
   2458  O         29.3750  -17.6030   11.5850 O.3   821  WAT821     -0.4105
   2459  H1        28.5920  -17.1280   11.8650 H     821  WAT821      0.2052
   2460  H2        29.0810  -18.5070   11.4770 H     821  WAT821      0.2052
   2461  O         20.0960   -1.1300    6.6030 O.3   822  WAT822     -0.4105
   2462  H1        19.9280   -1.7630    7.3020 H     822  WAT822      0.2052
   2463  H2        19.2290   -0.9240    6.2530 H     822  WAT822      0.2052
   2464  O         20.7190  -17.2980    4.1070 O.3   823  WAT823     -0.4105
   2465  H1        21.4770  -17.1850    3.5330 H     823  WAT823      0.2052
   2466  H2        20.2570  -16.4610    4.0610 H     823  WAT823      0.2052
   2467  O         27.2600  -15.1840    7.0970 O.3   824  WAT824     -0.4105
   2468  H1        26.4480  -15.5580    6.7560 H     824  WAT824      0.2052
   2469  H2        27.7640  -15.9400    7.3990 H     824  WAT824      0.2052
   2470  O         21.7020   -2.4360    4.0480 O.3   825  WAT825     -0.4105
   2471  H1        21.1770   -2.0560    3.3450 H     825  WAT825      0.2052
   2472  H2        21.6270   -1.8110    4.7690 H     825  WAT825      0.2052
   2473  O         23.0910  -16.7720    2.6470 O.3   826  WAT826     -0.4105
   2474  H1        23.6210  -17.5590    2.5180 H     826  WAT826      0.2052
   2475  H2        23.7240  -16.0920    2.8800 H     826  WAT826      0.2052
   2476  O         25.2850  -17.0340    5.7010 O.3   827  WAT827     -0.4105
   2477  H1        24.6550  -17.7350    5.8680 H     827  WAT827      0.2052
   2478  H2        24.7460  -16.2740    5.4850 H     827  WAT827      0.2052
   2479  O         28.2240   -0.4200   18.3720 O.3   828  WAT828     -0.4105
   2480  H1        29.1510   -0.6560   18.4160 H     828  WAT828      0.2052
   2481  H2        28.2090    0.4070   17.8910 H     828  WAT828      0.2052
   2482  O         25.4110  -17.7560   18.1370 O.3   829  WAT829     -0.4105
   2483  H1        25.1290  -17.2520   17.3730 H     829  WAT829      0.2052
   2484  H2        25.7930  -18.5530   17.7710 H     829  WAT829      0.2052
   2485  O         24.3020   -0.4880    2.9230 O.3   830  WAT830     -0.4105
   2486  H1        25.0330   -0.7720    2.3760 H     830  WAT830      0.2052
   2487  H2        24.5610   -0.7270    3.8130 H     830  WAT830      0.2052
   2488  O         23.4630   -4.3720    2.9280 O.3   831  WAT831     -0.4105
   2489  H1        22.8340   -3.9030    3.4770 H     831  WAT831      0.2052
   2490  H2        23.5780   -5.2170    3.3630 H     831  WAT831      0.2052
   2491  O         29.0500   -8.5430   -9.0410 O.3   832  WAT832     -0.4105
   2492  H1        28.2740   -9.0230   -8.7510 H     832  WAT832      0.2052
   2493  H2        29.7010   -9.2230   -9.2150 H     832  WAT832      0.2052
   2494  O         23.0660   -8.2310   -8.1630 O.3   833  WAT833     -0.4105
   2495  H1        22.2350   -8.4860   -7.7640 H     833  WAT833      0.2052
   2496  H2        23.6750   -8.1600   -7.4280 H     833  WAT833      0.2052
   2497  O         23.0470   -4.1970   -7.9680 O.3   834  WAT834     -0.4105
   2498  H1        23.3490   -5.0870   -8.1470 H     834  WAT834      0.2052
   2499  H2        23.7910   -3.6400   -8.1950 H     834  WAT834      0.2052
   2500  O         21.4760  -13.2710  -14.3790 O.3   835  WAT835     -0.4105
   2501  H1        20.5870  -12.9290  -14.4810 H     835  WAT835      0.2052
   2502  H2        21.7600  -13.4710  -15.2710 H     835  WAT835      0.2052
   2503  O         19.4390  -10.6700   -8.4950 O.3   836  WAT836     -0.4105
   2504  H1        20.0110  -11.4380   -8.4950 H     836  WAT836      0.2052
   2505  H2        19.4390  -10.3720   -9.4050 H     836  WAT836      0.2052
   2506  O         28.4910   -5.8670   -9.0340 O.3   837  WAT837     -0.4105
   2507  H1        28.4220   -6.8080   -9.1950 H     837  WAT837      0.2052
   2508  H2        29.2530   -5.7770   -8.4620 H     837  WAT837      0.2052
   2509  O         20.6810  -15.2620   -6.7080 O.3   838  WAT838     -0.4105
   2510  H1        20.5020  -16.1590   -6.4280 H     838  WAT838      0.2052
   2511  H2        20.2790  -14.7150   -6.0340 H     838  WAT838      0.2052
   2512  O         29.5210  -13.0600   -8.8070 O.3   839  WAT839     -0.4105
   2513  H1        29.8980  -13.9330   -8.9200 H     839  WAT839      0.2052
   2514  H2        29.4230  -12.7250   -9.6980 H     839  WAT839      0.2052
   2515  O         23.6520  -14.6880  -13.3450 O.3   840  WAT840     -0.4105
   2516  H1        23.7580  -13.7870  -13.0380 H     840  WAT840      0.2052
   2517  H2        22.7410  -14.7360  -13.6360 H     840  WAT840      0.2052
   2518  O         21.3000  -12.7660   -8.1000 O.3   841  WAT841     -0.4105
   2519  H1        21.9810  -12.5020   -7.4810 H     841  WAT841      0.2052
   2520  H2        20.9850  -13.6060   -7.7660 H     841  WAT841      0.2052
   2521  O         25.4930  -11.7190   -9.0130 O.3   842  WAT842     -0.4105
   2522  H1        26.0000  -11.2210   -8.3720 H     842  WAT842      0.2052
   2523  H2        26.0240  -12.4960   -9.1890 H     842  WAT842      0.2052
   2524  O         23.7760  -17.0790   -4.7460 O.3   843  WAT843     -0.4105
   2525  H1        23.7780  -16.5620   -5.5520 H     843  WAT843      0.2052
   2526  H2        22.9470  -17.5560   -4.7690 H     843  WAT843      0.2052
   2527  O         25.0260   -7.4400   -6.5690 O.3   844  WAT844     -0.4105
   2528  H1        24.6930   -6.8130   -5.9270 H     844  WAT844      0.2052
   2529  H2        25.2030   -6.9140   -7.3490 H     844  WAT844      0.2052
   2530  O         23.4580  -15.3680   -6.7390 O.3   845  WAT845     -0.4105
   2531  H1        23.7990  -14.5240   -7.0340 H     845  WAT845      0.2052
   2532  H2        22.5190  -15.2200   -6.6230 H     845  WAT845      0.2052
   2533  O         24.2380   -5.4720   -4.7540 O.3   846  WAT846     -0.4105
   2534  H1        24.8560   -4.7970   -5.0360 H     846  WAT846      0.2052
   2535  H2        23.3780   -5.0630   -4.8450 H     846  WAT846      0.2052
   2536  O         19.5320   -6.2820  -15.8740 O.3   847  WAT847     -0.4105
   2537  H1        19.1540   -5.7930  -16.6050 H     847  WAT847      0.2052
   2538  H2        19.7890   -5.6090  -15.2430 H     847  WAT847      0.2052
   2539  O         27.1400  -17.8800  -10.4150 O.3   848  WAT848     -0.4105
   2540  H1        27.4480  -18.4350  -11.1310 H     848  WAT848      0.2052
   2541  H2        26.2110  -17.7460  -10.5980 H     848  WAT848      0.2052
   2542  O         29.5290   -9.8150  -13.6790 O.3   849  WAT849     -0.4105
   2543  H1        28.6010   -9.8810  -13.4500 H     849  WAT849      0.2052
   2544  H2        29.6810   -8.8770  -13.7930 H     849  WAT849      0.2052
   2545  O         29.5150  -13.5440  -16.6820 O.3   850  WAT850     -0.4105
   2546  H1        28.5760  -13.3820  -16.5970 H     850  WAT850      0.2052
   2547  H2        29.8340  -12.8250  -17.2290 H     850  WAT850      0.2052
   2548  O         25.1340   -9.2890  -10.8970 O.3   851  WAT851     -0.4105
   2549  H1        24.7300  -10.0010  -11.3920 H     851  WAT851      0.2052
   2550  H2        25.2210   -9.6330  -10.0080 H     851  WAT851      0.2052
   2551  O         25.6020   -5.6020   -8.7330 O.3   852  WAT852     -0.4105
   2552  H1        25.3050   -6.2070   -9.4120 H     852  WAT852      0.2052
   2553  H2        26.5520   -5.5640   -8.8440 H     852  WAT852      0.2052
   2554  O         23.8470  -12.5140   -7.1170 O.3   853  WAT853     -0.4105
   2555  H1        24.3990  -12.4050   -7.8920 H     853  WAT853      0.2052
   2556  H2        24.3610  -12.1410   -6.4020 H     853  WAT853      0.2052
   2557  O         24.6940   -5.8640   -2.0820 O.3   854  WAT854     -0.4105
   2558  H1        23.7970   -5.6400   -1.8350 H     854  WAT854      0.2052
   2559  H2        24.7200   -5.7400   -3.0310 H     854  WAT854      0.2052
   2560  O         23.5210   -8.9920   -3.5070 O.3   855  WAT855     -0.4105
   2561  H1        23.3820   -8.1200   -3.1380 H     855  WAT855      0.2052
   2562  H2        22.6390   -9.3350   -3.6520 H     855  WAT855      0.2052
   2563  O         25.3190   -3.0500   -1.2980 O.3   856  WAT856     -0.4105
   2564  H1        25.2910   -2.6460   -2.1650 H     856  WAT856      0.2052
   2565  H2        25.1560   -3.9790   -1.4610 H     856  WAT856      0.2052
   2566  O         21.8350  -10.3940  -13.3960 O.3   857  WAT857     -0.4105
   2567  H1        21.7140   -9.6680  -14.0080 H     857  WAT857      0.2052
   2568  H2        21.5250  -11.1640  -13.8740 H     857  WAT857      0.2052
   2569  O         19.4730   -7.2230   -7.5890 O.3   858  WAT858     -0.4105
   2570  H1        19.5510   -7.0880   -8.5340 H     858  WAT858      0.2052
   2571  H2        20.0870   -7.9310   -7.3970 H     858  WAT858      0.2052
   2572  O         20.7180   -5.5230  -11.1790 O.3   859  WAT859     -0.4105
   2573  H1        20.3110   -5.3810  -12.0330 H     859  WAT859      0.2052
   2574  H2        21.6090   -5.8070  -11.3820 H     859  WAT859      0.2052
   2575  O         24.9900   -1.3080  -13.0670 O.3   860  WAT860     -0.4105
   2576  H1        24.8140   -2.2250  -13.2800 H     860  WAT860      0.2052
   2577  H2        24.1360   -0.9490  -12.8270 H     860  WAT860      0.2052
   2578  O         19.5290   -6.1810   -5.0500 O.3   861  WAT861     -0.4105
   2579  H1        19.6920   -6.6510   -5.8680 H     861  WAT861      0.2052
   2580  H2        19.9940   -6.6890   -4.3850 H     861  WAT861      0.2052
   2581  O         24.3010  -17.0510  -10.0140 O.3   862  WAT862     -0.4105
   2582  H1        23.8580  -16.2700  -10.3450 H     862  WAT862      0.2052
   2583  H2        24.8600  -16.7280   -9.3070 H     862  WAT862      0.2052
   2584  O         28.5880  -14.1840   -4.4100 O.3   863  WAT863     -0.4105
   2585  H1        28.1260  -13.9760   -3.5980 H     863  WAT863      0.2052
   2586  H2        28.1860  -14.9980   -4.7130 H     863  WAT863      0.2052
   2587  O         27.4170  -17.4300  -15.1330 O.3   864  WAT864     -0.4105
   2588  H1        26.7920  -17.4340  -14.4080 H     864  WAT864      0.2052
   2589  H2        27.3300  -18.2970  -15.5300 H     864  WAT864      0.2052
   2590  O         26.3390  -16.5060   -8.1550 O.3   865  WAT865     -0.4105
   2591  H1        26.6360  -15.6000   -8.2360 H     865  WAT865      0.2052
   2592  H2        26.8870  -16.9940   -8.7690 H     865  WAT865      0.2052
   2593  O         24.0920  -11.9270  -12.2860 O.3   866  WAT866     -0.4105
   2594  H1        23.8670  -12.1440  -11.3810 H     866  WAT866      0.2052
   2595  H2        23.3120  -11.4950  -12.6310 H     866  WAT866      0.2052
   2596  O         26.5320  -11.0290   -1.6200 O.3   867  WAT867     -0.4105
   2597  H1        26.4370  -11.9690   -1.7700 H     867  WAT867      0.2052
   2598  H2        27.3760  -10.8070   -2.0150 H     867  WAT867      0.2052
   2599  O         21.6630  -14.6170   -3.4660 O.3   868  WAT868     -0.4105
   2600  H1        21.2700  -13.7700   -3.2590 H     868  WAT868      0.2052
   2601  H2        20.9750  -15.2550   -3.2760 H     868  WAT868      0.2052
   2602  O         28.2380  -14.5340   -0.3970 O.3   869  WAT869     -0.4105
   2603  H1        27.5480  -14.7270    0.2380 H     869  WAT869      0.2052
   2604  H2        28.9810  -14.2510    0.1360 H     869  WAT869      0.2052
   2605  O         18.9650  -16.6950   -9.4330 O.3   870  WAT870     -0.4105
   2606  H1        18.6760  -16.1240   -8.7210 H     870  WAT870      0.2052
   2607  H2        19.7100  -17.1740   -9.0700 H     870  WAT870      0.2052
   2608  O         19.1520  -12.7530  -18.2230 O.3   871  WAT871     -0.4105
   2609  H1        19.0700  -11.8100  -18.0820 H     871  WAT871      0.2052
   2610  H2        18.8000  -12.8950  -19.1020 H     871  WAT871      0.2052
   2611  O         26.9520  -14.0190   -9.1560 O.3   872  WAT872     -0.4105
   2612  H1        26.9560  -14.4600  -10.0060 H     872  WAT872      0.2052
   2613  H2        27.8470  -13.6970   -9.0490 H     872  WAT872      0.2052
   2614  O         22.8020  -14.1360  -10.1970 O.3   873  WAT873     -0.4105
   2615  H1        22.4620  -13.6590   -9.4400 H     873  WAT873      0.2052
   2616  H2        22.0400  -14.5900  -10.5570 H     873  WAT873      0.2052
   2617  O         27.0140  -13.0170  -16.1650 O.3   874  WAT874     -0.4105
   2618  H1        27.1350  -13.0590  -15.2170 H     874  WAT874      0.2052
   2619  H2        26.6290  -12.1550  -16.3210 H     874  WAT874      0.2052
   2620  O         26.0260  -10.7070  -16.7670 O.3   875  WAT875     -0.4105
   2621  H1        25.4580  -11.1560  -17.3930 H     875  WAT875      0.2052
   2622  H2        26.7350  -10.3480  -17.3010 H     875  WAT875      0.2052
   2623  O         21.1030   -6.8060   -2.8900 O.3   876  WAT876     -0.4105
   2624  H1        20.7190   -7.4470   -2.2920 H     876  WAT876      0.2052
   2625  H2        21.4140   -6.1030   -2.3210 H     876  WAT876      0.2052
   2626  O         27.2530   -9.9590   -7.4100 O.3   877  WAT877     -0.4105
   2627  H1        27.6200  -10.4330   -6.6630 H     877  WAT877      0.2052
   2628  H2        27.0630   -9.0840   -7.0690 H     877  WAT877      0.2052
   2629  O         20.1170  -15.2140  -11.2800 O.3   878  WAT878     -0.4105
   2630  H1        19.8320  -15.5790  -10.4420 H     878  WAT878      0.2052
   2631  H2        20.0550  -15.9460  -11.8940 H     878  WAT878      0.2052
   2632  O         25.0430  -10.9180   -5.0910 O.3   879  WAT879     -0.4105
   2633  H1        24.7380  -10.0380   -4.8660 H     879  WAT879      0.2052
   2634  H2        25.9970  -10.8580   -5.0550 H     879  WAT879      0.2052
   2635  O         23.5710   -6.7120  -14.4940 O.3   880  WAT880     -0.4105
   2636  H1        22.7970   -7.2520  -14.6550 H     880  WAT880      0.2052
   2637  H2        24.3000   -7.2310  -14.8330 H     880  WAT880      0.2052
   2638  O         29.7910  -16.3210  -14.5590 O.3   881  WAT881     -0.4105
   2639  H1        28.9770  -16.8200  -14.6340 H     881  WAT881      0.2052
   2640  H2        29.5970  -15.4810  -14.9750 H     881  WAT881      0.2052
   2641  O         29.7120   -7.6440   -2.8150 O.3   882  WAT882     -0.4105
   2642  H1        29.6450   -8.5650   -3.0690 H     882  WAT882      0.2052
   2643  H2        29.0820   -7.5470   -2.1000 H     882  WAT882      0.2052
   2644  O         23.6150   -7.0440  -10.8570 O.3   883  WAT883     -0.4105
   2645  H1        24.1320   -7.8470  -10.9110 H     883  WAT883      0.2052
   2646  H2        23.1630   -7.1060  -10.0150 H     883  WAT883      0.2052
   2647  O         28.5020   -5.7770  -15.5840 O.3   884  WAT884     -0.4105
   2648  H1        28.8430   -5.0330  -16.0790 H     884  WAT884      0.2052
   2649  H2        27.6730   -5.4640  -15.2210 H     884  WAT884      0.2052
   2650  O         21.0990  -10.0770   -3.9440 O.3   885  WAT885     -0.4105
   2651  H1        20.7410   -9.4120   -3.3570 H     885  WAT885      0.2052
   2652  H2        20.8050  -10.9090   -3.5730 H     885  WAT885      0.2052
   2653  O         24.3000   -9.6190   -1.0600 O.3   886  WAT886     -0.4105
   2654  H1        24.0000   -9.4730   -1.9570 H     886  WAT886      0.2052
   2655  H2        25.0720  -10.1780   -1.1530 H     886  WAT886      0.2052
   2656  O         29.6430   -4.8220   -3.0650 O.3   887  WAT887     -0.4105
   2657  H1        29.6580   -5.7540   -3.2830 H     887  WAT887      0.2052
   2658  H2        28.9360   -4.7360   -2.4260 H     887  WAT887      0.2052
   2659  O         27.4710   -5.6960  -12.8120 O.3   888  WAT888     -0.4105
   2660  H1        28.1580   -5.1490  -12.4310 H     888  WAT888      0.2052
   2661  H2        26.6840   -5.1510  -12.7770 H     888  WAT888      0.2052
   2662  O         19.6100  -10.0780  -17.3210 O.3   889  WAT889     -0.4105
   2663  H1        20.4790   -9.7960  -17.0370 H     889  WAT889      0.2052
   2664  H2        19.1190   -9.2650  -17.4360 H     889  WAT889      0.2052
   2665  O         26.7730   -8.6910  -13.2000 O.3   890  WAT890     -0.4105
   2666  H1        27.2300   -7.8800  -12.9740 H     890  WAT890      0.2052
   2667  H2        26.4220   -9.0090  -12.3680 H     890  WAT890      0.2052
   2668  O         29.0770   -3.1800   -5.9700 O.3   891  WAT891     -0.4105
   2669  H1        29.7210   -2.9740   -5.2930 H     891  WAT891      0.2052
   2670  H2        29.4400   -3.9410   -6.4230 H     891  WAT891      0.2052
   2671  O         22.6750  -18.3470  -12.7270 O.3   892  WAT892     -0.4105
   2672  H1        22.5460  -18.3550  -11.7790 H     892  WAT892      0.2052
   2673  H2        21.8510  -18.0090  -13.0780 H     892  WAT892      0.2052
   2674  O         19.9770   -0.8660  -16.7540 O.3   893  WAT893     -0.4105
   2675  H1        20.3370   -0.2670  -17.4090 H     893  WAT893      0.2052
   2676  H2        19.8360   -0.3200  -15.9810 H     893  WAT893      0.2052
   2677  O         19.6740  -16.5880   -3.2670 O.3   894  WAT894     -0.4105
   2678  H1        18.9600  -16.3880   -2.6620 H     894  WAT894      0.2052
   2679  H2        20.0930  -17.3640   -2.8950 H     894  WAT894      0.2052
   2680  O         19.9610   -2.6000   -2.2800 O.3   895  WAT895     -0.4105
   2681  H1        20.0700   -3.5410   -2.4210 H     895  WAT895      0.2052
   2682  H2        19.3090   -2.3350   -2.9290 H     895  WAT895      0.2052
   2683  O         27.9520   -4.3280   -0.8800 O.3   896  WAT896     -0.4105
   2684  H1        27.6320   -5.0480   -0.3360 H     896  WAT896      0.2052
   2685  H2        27.2780   -3.6530   -0.8070 H     896  WAT896      0.2052
   2686  O         25.9940   -3.4820  -15.9370 O.3   897  WAT897     -0.4105
   2687  H1        25.9850   -2.7490  -16.5530 H     897  WAT897      0.2052
   2688  H2        25.0740   -3.7290  -15.8440 H     897  WAT897      0.2052
   2689  O         21.5950   -8.2610  -15.1920 O.3   898  WAT898     -0.4105
   2690  H1        20.9870   -7.5210  -15.1830 H     898  WAT898      0.2052
   2691  H2        22.0690   -8.1710  -16.0190 H     898  WAT898      0.2052
   2692  O         28.9800   -3.4200  -17.2740 O.3   899  WAT899     -0.4105
   2693  H1        29.0810   -3.6230  -18.2040 H     899  WAT899      0.2052
   2694  H2        28.0800   -3.6740  -17.0700 H     899  WAT899      0.2052
   2695  O         26.5020  -12.8620  -13.2920 O.3   900  WAT900     -0.4105
   2696  H1        25.7940  -12.3930  -12.8510 H     900  WAT900      0.2052
   2697  H2        26.7870  -13.5190  -12.6580 H     900  WAT900      0.2052
   2698  O         28.1280  -11.4420   -5.2930 O.3   901  WAT901     -0.4105
   2699  H1        28.6270  -10.9670   -4.6280 H     901  WAT901      0.2052
   2700  H2        28.2700  -12.3660   -5.0860 H     901  WAT901      0.2052
   2701  O         27.6220   -0.9010  -12.5800 O.3   902  WAT902     -0.4105
   2702  H1        27.8760   -0.9390  -13.5020 H     902  WAT902      0.2052
   2703  H2        26.6730   -1.0280  -12.5870 H     902  WAT902      0.2052
   2704  O         24.7060  -14.5530  -15.9170 O.3   903  WAT903     -0.4105
   2705  H1        25.5550  -14.1160  -15.9830 H     903  WAT903      0.2052
   2706  H2        24.3390  -14.2410  -15.0900 H     903  WAT903      0.2052
   2707  O         23.6050   -8.3000  -17.4430 O.3   904  WAT904     -0.4105
   2708  H1        24.3710   -8.4120  -16.8810 H     904  WAT904      0.2052
   2709  H2        23.6830   -8.9960  -18.0960 H     904  WAT904      0.2052
   2710  O         22.3000  -10.8670  -16.7600 O.3   905  WAT905     -0.4105
   2711  H1        22.3800  -11.8150  -16.6480 H     905  WAT905      0.2052
   2712  H2        23.1920  -10.5370  -16.6540 H     905  WAT905      0.2052
   2713  O         23.1010   -0.7180   -9.6570 O.3   906  WAT906     -0.4105
   2714  H1        23.8370   -1.2660   -9.3860 H     906  WAT906      0.2052
   2715  H2        23.4850    0.1480   -9.7960 H     906  WAT906      0.2052
   2716  O         19.9860   -4.6500  -13.7830 O.3   907  WAT907     -0.4105
   2717  H1        19.0600   -4.4080  -13.7920 H     907  WAT907      0.2052
   2718  H2        20.4510   -3.8230  -13.9040 H     907  WAT907      0.2052
   2719  O         22.1070   -1.5330   -0.4680 O.3   908  WAT908     -0.4105
   2720  H1        22.9080   -1.2120   -0.0550 H     908  WAT908      0.2052
   2721  H2        21.5920   -1.8940    0.2540 H     908  WAT908      0.2052
   2722  O         26.2110   -1.5450  -17.8340 O.3   909  WAT909     -0.4105
   2723  H1        27.0040   -1.2560  -18.2860 H     909  WAT909      0.2052
   2724  H2        25.6920   -1.9760  -18.5130 H     909  WAT909      0.2052
   2725  O         19.8270   -9.0460   -1.5250 O.3   910  WAT910     -0.4105
   2726  H1        20.3310   -9.6250   -0.9530 H     910  WAT910      0.2052
   2727  H2        19.0880   -8.7620   -0.9870 H     910  WAT910      0.2052
   2728  O         26.7290   -6.3240  -17.9700 O.3   911  WAT911     -0.4105
   2729  H1        26.6240   -6.9390  -17.2440 H     911  WAT911      0.2052
   2730  H2        26.5620   -6.8480  -18.7540 H     911  WAT911      0.2052
   2731  O         26.8810   -7.6390   -1.9910 O.3   912  WAT912     -0.4105
   2732  H1        26.1150   -7.0700   -2.0760 H     912  WAT912      0.2052
   2733  H2        27.0620   -7.9310   -2.8840 H     912  WAT912      0.2052
   2734  O         21.8590  -10.9030   -0.6300 O.3   913  WAT913     -0.4105
   2735  H1        21.9000  -11.2010    0.2790 H     913  WAT913      0.2052
   2736  H2        22.7140  -10.5020   -0.7890 H     913  WAT913      0.2052
   2737  O         25.6370   -8.3030  -15.4690 O.3   914  WAT914     -0.4105
   2738  H1        26.0590   -8.4690  -14.6260 H     914  WAT914      0.2052
   2739  H2        25.7620   -9.1130  -15.9640 H     914  WAT914      0.2052
   2740  O         23.8000  -12.3240   -2.6620 O.3   915  WAT915     -0.4105
   2741  H1        23.2690  -12.8150   -3.2900 H     915  WAT915      0.2052
   2742  H2        24.4690  -11.8950   -3.1960 H     915  WAT915      0.2052
   2743  O         28.1500   -9.2800  -18.2210 O.3   916  WAT916     -0.4105
   2744  H1        28.6700   -9.9950  -18.5870 H     916  WAT916      0.2052
   2745  H2        28.7970   -8.6410  -17.9210 H     916  WAT916      0.2052
   2746  O         24.2870  -15.3570   -2.5820 O.3   917  WAT917     -0.4105
   2747  H1        24.1930  -15.9750   -3.3070 H     917  WAT917      0.2052
   2748  H2        23.7070  -14.6310   -2.8090 H     917  WAT917      0.2052
   2749  O         27.0530  -16.8000   -5.5500 O.3   918  WAT918     -0.4105
   2750  H1        26.6050  -16.7780   -6.3950 H     918  WAT918      0.2052
   2751  H2        26.4200  -17.1980   -4.9530 H     918  WAT918      0.2052
   2752  O         27.4590   -7.9050   -4.9280 O.3   919  WAT919     -0.4105
   2753  H1        27.8780   -7.0610   -5.1010 H     919  WAT919      0.2052
   2754  H2        26.5400   -7.7670   -5.1580 H     919  WAT919      0.2052
   2755  O         24.5330  -12.2300  -18.5230 O.3   920  WAT920     -0.4105
   2756  H1        24.3320  -13.0930  -18.1620 H     920  WAT920      0.2052
   2757  H2        24.3620  -12.3170  -19.4610 H     920  WAT920      0.2052
   2758  O         25.3100   -1.5990   -3.8130 O.3   921  WAT921     -0.4105
   2759  H1        24.7720   -0.8750   -4.1320 H     921  WAT921      0.2052
   2760  H2        25.5630   -2.0760   -4.6030 H     921  WAT921      0.2052
   2761  O         26.5620  -13.6310   -2.2870 O.3   922  WAT922     -0.4105
   2762  H1        27.1520  -13.9390   -1.5990 H     922  WAT922      0.2052
   2763  H2        25.7440  -14.1030   -2.1310 H     922  WAT922      0.2052
   2764  O         23.3310  -15.1300  -18.5360 O.3   923  WAT923     -0.4105
   2765  H1        23.6340  -15.1230  -19.4440 H     923  WAT923      0.2052
   2766  H2        24.0710  -15.4800  -18.0390 H     923  WAT923      0.2052
   2767  O         28.1660   -0.3640   -3.5540 O.3   924  WAT924     -0.4105
   2768  H1        28.0920    0.5390   -3.2470 H     924  WAT924      0.2052
   2769  H2        27.2640   -0.6830   -3.5820 H     924  WAT924      0.2052
   2770  O         26.5500  -16.1860  -17.5500 O.3   925  WAT925     -0.4105
   2771  H1        26.2020  -16.8640  -18.1300 H     925  WAT925      0.2052
   2772  H2        26.7510  -16.6470  -16.7360 H     925  WAT925      0.2052
   2773  O         28.7150   -1.1980  -15.9310 O.3   926  WAT926     -0.4105
   2774  H1        29.6100   -0.8600  -15.9090 H     926  WAT926      0.2052
   2775  H2        28.7460   -1.9200  -16.5590 H     926  WAT926      0.2052
   2776  O         22.3540   -5.8260  -17.7030 O.3   927  WAT927     -0.4105
   2777  H1        22.7920   -5.2830  -17.0470 H     927  WAT927      0.2052
   2778  H2        22.8390   -6.6510  -17.6930 H     927  WAT927      0.2052
   2779  O         19.5690   -3.0370  -10.2510 O.3   928  WAT928     -0.4105
   2780  H1        19.8990   -3.9050  -10.4830 H     928  WAT928      0.2052
   2781  H2        19.9980   -2.8310   -9.4200 H     928  WAT928      0.2052
   2782  O         24.1650   -4.7060  -12.5900 O.3   929  WAT929     -0.4105
   2783  H1        23.8640   -4.8290  -11.6900 H     929  WAT929      0.2052
   2784  H2        24.0590   -5.5650  -12.9990 H     929  WAT929      0.2052
   2785  O         20.0580   -2.1700   -7.5120 O.3   930  WAT930     -0.4105
   2786  H1        19.6210   -1.9900   -6.6800 H     930  WAT930      0.2052
   2787  H2        20.6260   -1.4120   -7.6540 H     930  WAT930      0.2052
   2788  O         19.8900   -9.6580  -11.1540 O.3   931  WAT931     -0.4105
   2789  H1        19.2350   -9.9270  -11.7980 H     931  WAT931      0.2052
   2790  H2        20.7280   -9.7670  -11.6030 H     931  WAT931      0.2052
   2791  O         20.9280   -9.2720   -6.6130 O.3   932  WAT932     -0.4105
   2792  H1        21.2950   -9.3600   -5.7340 H     932  WAT932      0.2052
   2793  H2        20.3590  -10.0360   -6.7130 H     932  WAT932      0.2052
   2794  O         20.4790  -12.3620   -2.7070 O.3   933  WAT933     -0.4105
   2795  H1        19.5850  -12.3950   -2.3680 H     933  WAT933      0.2052
   2796  H2        21.0190  -12.1630   -1.9420 H     933  WAT933      0.2052
   2797  O         19.1040  -12.4480  -15.2110 O.3   934  WAT934     -0.4105
   2798  H1        18.2000  -12.1850  -15.3860 H     934  WAT934      0.2052
   2799  H2        19.5880  -12.1770  -15.9910 H     934  WAT934      0.2052
   2800  O         21.6470  -13.3910  -17.3020 O.3   935  WAT935     -0.4105
   2801  H1        22.3560  -13.8130  -17.7870 H     935  WAT935      0.2052
   2802  H2        20.9310  -13.3240  -17.9330 H     935  WAT935      0.2052
   2803  O         21.2940  -17.3370  -18.2610 O.3   936  WAT936     -0.4105
   2804  H1        22.0170  -16.7960  -17.9430 H     936  WAT936      0.2052
   2805  H2        21.5670  -17.6110  -19.1370 H     936  WAT936      0.2052
   2806  O         20.9830  -18.0870   -8.3590 O.3   937  WAT937     -0.4105
   2807  H1        21.6310  -18.6370   -8.8000 H     937  WAT937      0.2052
   2808  H2        21.4040  -17.8320   -7.5370 H     937  WAT937      0.2052
   2809  O         20.7370  -17.9310   -5.6170 O.3   938  WAT938     -0.4105
   2810  H1        20.3880  -17.4750   -4.8510 H     938  WAT938      0.2052
   2811  H2        20.4050  -18.8250   -5.5340 H     938  WAT938      0.2052
   2812  O         22.3430   -4.7590   -1.4510 O.3   939  WAT939     -0.4105
   2813  H1        22.3000   -5.1300   -0.5700 H     939  WAT939      0.2052
   2814  H2        22.4740   -3.8210   -1.3110 H     939  WAT939      0.2052
   2815  O         26.0440   -3.2030   -5.8500 O.3   940  WAT940     -0.4105
   2816  H1        25.8030   -2.9360   -6.7370 H     940  WAT940      0.2052
   2817  H2        26.9840   -3.0330   -5.7950 H     940  WAT940      0.2052
   2818  O         28.2490  -16.7400   -2.0950 O.3   941  WAT941     -0.4105
   2819  H1        28.1880  -16.1480   -1.3450 H     941  WAT941      0.2052
   2820  H2        29.1890  -16.8470   -2.2400 H     941  WAT941      0.2052
   2821  O         21.4090  -18.4030   -2.3410 O.3   942  WAT942     -0.4105
   2822  H1        21.9570  -18.5850   -3.1050 H     942  WAT942      0.2052
   2823  H2        21.4740  -19.1940   -1.8060 H     942  WAT942      0.2052
   2824  O         22.1820   -1.8130   -4.3310 O.3   943  WAT943     -0.4105
   2825  H1        21.5880   -1.9440   -3.5920 H     943  WAT943      0.2052
   2826  H2        22.1740   -2.6490   -4.7970 H     943  WAT943      0.2052
   2827  O         21.8130   -4.4470   -5.3810 O.3   944  WAT944     -0.4105
   2828  H1        21.0860   -5.0670   -5.4480 H     944  WAT944      0.2052
   2829  H2        21.8740   -4.0530   -6.2510 H     944  WAT944      0.2052
   2830  O         25.4180   -2.2330   -8.5960 O.3   945  WAT945     -0.4105
   2831  H1        25.9340   -2.8440   -9.1210 H     945  WAT945      0.2052
   2832  H2        26.0670   -1.7300   -8.1050 H     945  WAT945      0.2052
   2833  O         28.1570   -1.3420   -7.7690 O.3   946  WAT946     -0.4105
   2834  H1        28.4450   -1.5960   -8.6450 H     946  WAT946      0.2052
   2835  H2        28.6690   -1.8940   -7.1780 H     946  WAT946      0.2052
   2836  O         29.3750  -17.6030   -7.1890 O.3   947  WAT947     -0.4105
   2837  H1        28.5920  -17.1280   -6.9090 H     947  WAT947      0.2052
   2838  H2        29.0810  -18.5070   -7.2980 H     947  WAT947      0.2052
   2839  O         20.0960   -1.1300  -12.1710 O.3   948  WAT948     -0.4105
   2840  H1        19.9280   -1.7630  -11.4730 H     948  WAT948      0.2052
   2841  H2        19.2290   -0.9240  -12.5220 H     948  WAT948      0.2052
   2842  O         20.7190  -17.2980  -14.6680 O.3   949  WAT949     -0.4105
   2843  H1        21.4770  -17.1850  -15.2410 H     949  WAT949      0.2052
   2844  H2        20.2570  -16.4610  -14.7130 H     949  WAT949      0.2052
   2845  O         27.2600  -15.1840  -11.6780 O.3   950  WAT950     -0.4105
   2846  H1        26.4480  -15.5580  -12.0180 H     950  WAT950      0.2052
   2847  H2        27.7640  -15.9400  -11.3750 H     950  WAT950      0.2052
   2848  O         21.7020   -2.4360  -14.7260 O.3   951  WAT951     -0.4105
   2849  H1        21.1770   -2.0560  -15.4300 H     951  WAT951      0.2052
   2850  H2        21.6270   -1.8110  -14.0050 H     951  WAT951      0.2052
   2851  O         23.0910  -16.7720  -16.1280 O.3   952  WAT952     -0.4105
   2852  H1        23.6210  -17.5590  -16.2570 H     952  WAT952      0.2052
   2853  H2        23.7240  -16.0920  -15.8940 H     952  WAT952      0.2052
   2854  O         25.2850  -17.0340  -13.0730 O.3   953  WAT953     -0.4105
   2855  H1        24.6550  -17.7350  -12.9060 H     953  WAT953      0.2052
   2856  H2        24.7460  -16.2740  -13.2900 H     953  WAT953      0.2052
   2857  O         28.2240   -0.4200   -0.4020 O.3   954  WAT954     -0.4105
   2858  H1        29.1510   -0.6560   -0.3580 H     954  WAT954      0.2052
   2859  H2        28.2090    0.4070   -0.8830 H     954  WAT954      0.2052
   2860  O         25.4110  -17.7560   -0.6380 O.3   955  WAT955     -0.4105
   2861  H1        25.1290  -17.2520   -1.4020 H     955  WAT955      0.2052
   2862  H2        25.7930  -18.5530   -1.0040 H     955  WAT955      0.2052
   2863  O         24.3020   -0.4880  -15.8510 O.3   956  WAT956     -0.4105
   2864  H1        25.0330   -0.7720  -16.3990 H     956  WAT956      0.2052
   2865  H2        24.5610   -0.7270  -14.9610 H     956  WAT956      0.2052
   2866  O         23.4630   -4.3720  -15.8460 O.3   957  WAT957     -0.4105
   2867  H1        22.8340   -3.9030  -15.2980 H     957  WAT957      0.2052
   2868  H2        23.5780   -5.2170  -15.4120 H     957  WAT957      0.2052
   2869  O         29.0500   -8.5430  -27.8150 O.3   958  WAT958     -0.4105
   2870  H1        28.2740   -9.0230  -27.5250 H     958  WAT958      0.2052
   2871  H2        29.7010   -9.2230  -27.9900 H     958  WAT958      0.2052
   2872  O         23.0660   -8.2310  -26.9380 O.3   959  WAT959     -0.4105
   2873  H1        22.2350   -8.4860  -26.5380 H     959  WAT959      0.2052
   2874  H2        23.6750   -8.1600  -26.2020 H     959  WAT959      0.2052
   2875  O         23.0470   -4.1970  -26.7420 O.3   960  WAT960     -0.4105
   2876  H1        23.3490   -5.0870  -26.9210 H     960  WAT960      0.2052
   2877  H2        23.7910   -3.6400  -26.9700 H     960  WAT960      0.2052
   2878  O         19.4390  -10.6700  -27.2700 O.3   961  WAT961     -0.4105
   2879  H1        20.0110  -11.4380  -27.2690 H     961  WAT961      0.2052
   2880  H2        19.4390  -10.3720  -28.1790 H     961  WAT961      0.2052
   2881  O         28.4910   -5.8670  -27.8080 O.3   962  WAT962     -0.4105
   2882  H1        28.4220   -6.8080  -27.9690 H     962  WAT962      0.2052
   2883  H2        29.2530   -5.7770  -27.2360 H     962  WAT962      0.2052
   2884  O         20.6810  -15.2620  -25.4830 O.3   963  WAT963     -0.4105
   2885  H1        20.5020  -16.1590  -25.2020 H     963  WAT963      0.2052
   2886  H2        20.2790  -14.7150  -24.8080 H     963  WAT963      0.2052
   2887  O         29.5210  -13.0600  -27.5810 O.3   964  WAT964     -0.4105
   2888  H1        29.8980  -13.9330  -27.6940 H     964  WAT964      0.2052
   2889  H2        29.4230  -12.7250  -28.4720 H     964  WAT964      0.2052
   2890  O         21.3000  -12.7660  -26.8740 O.3   965  WAT965     -0.4105
   2891  H1        21.9810  -12.5020  -26.2560 H     965  WAT965      0.2052
   2892  H2        20.9850  -13.6060  -26.5410 H     965  WAT965      0.2052
   2893  O         25.4930  -11.7190  -27.7870 O.3   966  WAT966     -0.4105
   2894  H1        26.0000  -11.2210  -27.1470 H     966  WAT966      0.2052
   2895  H2        26.0240  -12.4960  -27.9630 H     966  WAT966      0.2052
   2896  O         23.7760  -17.0790  -23.5210 O.3   967  WAT967     -0.4105
   2897  H1        23.7780  -16.5620  -24.3260 H     967  WAT967      0.2052
   2898  H2        22.9470  -17.5560  -23.5440 H     967  WAT967      0.2052
   2899  O         25.0260   -7.4400  -25.3430 O.3   968  WAT968     -0.4105
   2900  H1        24.6930   -6.8130  -24.7010 H     968  WAT968      0.2052
   2901  H2        25.2030   -6.9140  -26.1230 H     968  WAT968      0.2052
   2902  O         23.4580  -15.3680  -25.5140 O.3   969  WAT969     -0.4105
   2903  H1        23.7990  -14.5240  -25.8080 H     969  WAT969      0.2052
   2904  H2        22.5190  -15.2200  -25.3970 H     969  WAT969      0.2052
   2905  O         24.2380   -5.4720  -23.5290 O.3   970  WAT970     -0.4105
   2906  H1        24.8560   -4.7970  -23.8100 H     970  WAT970      0.2052
   2907  H2        23.3780   -5.0630  -23.6200 H     970  WAT970      0.2052
   2908  O         27.1400  -17.8800  -29.1890 O.3   971  WAT971     -0.4105
   2909  H1        27.4480  -18.4350  -29.9060 H     971  WAT971      0.2052
   2910  H2        26.2110  -17.7460  -29.3720 H     971  WAT971      0.2052
   2911  O         25.6020   -5.6020  -27.5070 O.3   972  WAT972     -0.4105
   2912  H1        25.3050   -6.2070  -28.1870 H     972  WAT972      0.2052
   2913  H2        26.5520   -5.5640  -27.6180 H     972  WAT972      0.2052
   2914  O         23.8470  -12.5140  -25.8910 O.3   973  WAT973     -0.4105
   2915  H1        24.3990  -12.4050  -26.6660 H     973  WAT973      0.2052
   2916  H2        24.3610  -12.1410  -25.1760 H     973  WAT973      0.2052
   2917  O         24.6940   -5.8640  -20.8570 O.3   974  WAT974     -0.4105
   2918  H1        23.7970   -5.6400  -20.6090 H     974  WAT974      0.2052
   2919  H2        24.7200   -5.7400  -21.8050 H     974  WAT974      0.2052
   2920  O         23.5210   -8.9920  -22.2810 O.3   975  WAT975     -0.4105
   2921  H1        23.3820   -8.1200  -21.9120 H     975  WAT975      0.2052
   2922  H2        22.6390   -9.3350  -22.4260 H     975  WAT975      0.2052
   2923  O         25.3190   -3.0500  -20.0720 O.3   976  WAT976     -0.4105
   2924  H1        25.2910   -2.6460  -20.9400 H     976  WAT976      0.2052
   2925  H2        25.1560   -3.9790  -20.2350 H     976  WAT976      0.2052
   2926  O         19.4730   -7.2230  -26.3640 O.3   977  WAT977     -0.4105
   2927  H1        19.5510   -7.0880  -27.3080 H     977  WAT977      0.2052
   2928  H2        20.0870   -7.9310  -26.1710 H     977  WAT977      0.2052
   2929  O         19.5290   -6.1810  -23.8240 O.3   978  WAT978     -0.4105
   2930  H1        19.6920   -6.6510  -24.6420 H     978  WAT978      0.2052
   2931  H2        19.9940   -6.6890  -23.1590 H     978  WAT978      0.2052
   2932  O         24.3010  -17.0510  -28.7880 O.3   979  WAT979     -0.4105
   2933  H1        23.8580  -16.2700  -29.1200 H     979  WAT979      0.2052
   2934  H2        24.8600  -16.7280  -28.0810 H     979  WAT979      0.2052
   2935  O         28.5880  -14.1840  -23.1850 O.3   980  WAT980     -0.4105
   2936  H1        28.1260  -13.9760  -22.3730 H     980  WAT980      0.2052
   2937  H2        28.1860  -14.9980  -23.4880 H     980  WAT980      0.2052
   2938  O         26.3390  -16.5060  -26.9290 O.3   981  WAT981     -0.4105
   2939  H1        26.6360  -15.6000  -27.0100 H     981  WAT981      0.2052
   2940  H2        26.8870  -16.9940  -27.5430 H     981  WAT981      0.2052
   2941  O         26.5320  -11.0290  -20.3940 O.3   982  WAT982     -0.4105
   2942  H1        26.4370  -11.9690  -20.5440 H     982  WAT982      0.2052
   2943  H2        27.3760  -10.8070  -20.7890 H     982  WAT982      0.2052
   2944  O         21.6630  -14.6170  -22.2410 O.3   983  WAT983     -0.4105
   2945  H1        21.2700  -13.7700  -22.0330 H     983  WAT983      0.2052
   2946  H2        20.9750  -15.2550  -22.0500 H     983  WAT983      0.2052
   2947  O         28.2380  -14.5340  -19.1710 O.3   984  WAT984     -0.4105
   2948  H1        27.5480  -14.7270  -18.5360 H     984  WAT984      0.2052
   2949  H2        28.9810  -14.2510  -18.6390 H     984  WAT984      0.2052
   2950  O         18.9650  -16.6950  -28.2080 O.3   985  WAT985     -0.4105
   2951  H1        18.6760  -16.1240  -27.4950 H     985  WAT985      0.2052
   2952  H2        19.7100  -17.1740  -27.8450 H     985  WAT985      0.2052
   2953  O         26.9520  -14.0190  -27.9300 O.3   986  WAT986     -0.4105
   2954  H1        26.9560  -14.4600  -28.7800 H     986  WAT986      0.2052
   2955  H2        27.8470  -13.6970  -27.8230 H     986  WAT986      0.2052
   2956  O         22.8020  -14.1360  -28.9710 O.3   987  WAT987     -0.4105
   2957  H1        22.4620  -13.6590  -28.2140 H     987  WAT987      0.2052
   2958  H2        22.0400  -14.5900  -29.3310 H     987  WAT987      0.2052
   2959  O         21.1030   -6.8060  -21.6650 O.3   988  WAT988     -0.4105
   2960  H1        20.7190   -7.4470  -21.0660 H     988  WAT988      0.2052
   2961  H2        21.4140   -6.1030  -21.0950 H     988  WAT988      0.2052
   2962  O         27.2530   -9.9590  -26.1840 O.3   989  WAT989     -0.4105
   2963  H1        27.6200  -10.4330  -25.4380 H     989  WAT989      0.2052
   2964  H2        27.0630   -9.0840  -25.8430 H     989  WAT989      0.2052
   2965  O         25.0430  -10.9180  -23.8650 O.3   990  WAT990     -0.4105
   2966  H1        24.7380  -10.0380  -23.6400 H     990  WAT990      0.2052
   2967  H2        25.9970  -10.8580  -23.8300 H     990  WAT990      0.2052
   2968  O         29.7120   -7.6440  -21.5890 O.3   991  WAT991     -0.4105
   2969  H1        29.6450   -8.5650  -21.8430 H     991  WAT991      0.2052
   2970  H2        29.0820   -7.5470  -20.8750 H     991  WAT991      0.2052
   2971  O         23.6150   -7.0440  -29.6310 O.3   992  WAT992     -0.4105
   2972  H1        24.1320   -7.8470  -29.6850 H     992  WAT992      0.2052
   2973  H2        23.1630   -7.1060  -28.7890 H     992  WAT992      0.2052
   2974  O         21.0990  -10.0770  -22.7180 O.3   993  WAT993     -0.4105
   2975  H1        20.7410   -9.4120  -22.1310 H     993  WAT993      0.2052
   2976  H2        20.8050  -10.9090  -22.3470 H     993  WAT993      0.2052
   2977  O         24.3000   -9.6190  -19.8340 O.3   994  WAT994     -0.4105
   2978  H1        24.0000   -9.4730  -20.7320 H     994  WAT994      0.2052
   2979  H2        25.0720  -10.1780  -19.9270 H     994  WAT994      0.2052
   2980  O         29.6430   -4.8220  -21.8390 O.3   995  WAT995     -0.4105
   2981  H1        29.6580   -5.7540  -22.0570 H     995  WAT995      0.2052
   2982  H2        28.9360   -4.7360  -21.2000 H     995  WAT995      0.2052
   2983  O         29.0770   -3.1800  -24.7450 O.3   996  WAT996     -0.4105
   2984  H1        29.7210   -2.9740  -24.0670 H     996  WAT996      0.2052
   2985  H2        29.4400   -3.9410  -25.1980 H     996  WAT996      0.2052
   2986  O         19.6740  -16.5880  -22.0410 O.3   997  WAT997     -0.4105
   2987  H1        18.9600  -16.3880  -21.4360 H     997  WAT997      0.2052
   2988  H2        20.0930  -17.3640  -21.6700 H     997  WAT997      0.2052
   2989  O         19.9610   -2.6000  -21.0540 O.3   998  WAT998     -0.4105
   2990  H1        20.0700   -3.5410  -21.1950 H     998  WAT998      0.2052
   2991  H2        19.3090   -2.3350  -21.7030 H     998  WAT998      0.2052
   2992  O         27.9520   -4.3280  -19.6550 O.3   999  WAT999     -0.4105
   2993  H1        27.6320   -5.0480  -19.1100 H     999  WAT999      0.2052
   2994  H2        27.2780   -3.6530  -19.5810 H     999  WAT999      0.2052
   2995  O         28.1280  -11.4420  -24.0670 O.3  1000  WAT1000    -0.4105
   2996  H1        28.6270  -10.9670  -23.4020 H    1000  WAT1000     0.2052
   2997  H2        28.2700  -12.3660  -23.8600 H    1000  WAT1000     0.2052
   2998  O         23.1010   -0.7180  -28.4310 O.3  1001  WAT1001    -0.4105
   2999  H1        23.8370   -1.2660  -28.1600 H    1001  WAT1001     0.2052
   3000  H2        23.4850    0.1480  -28.5700 H    1001  WAT1001     0.2052
   3001  O         22.1070   -1.5330  -19.2430 O.3  1002  WAT1002    -0.4105
   3002  H1        22.9080   -1.2120  -18.8290 H    1002  WAT1002     0.2052
   3003  H2        21.5920   -1.8940  -18.5210 H    1002  WAT1002     0.2052
   3004  O         19.8270   -9.0460  -20.2990 O.3  1003  WAT1003    -0.4105
   3005  H1        20.3310   -9.6250  -19.7270 H    1003  WAT1003     0.2052
   3006  H2        19.0880   -8.7620  -19.7610 H    1003  WAT1003     0.2052
   3007  O         26.8810   -7.6390  -20.7650 O.3  1004  WAT1004    -0.4105
   3008  H1        26.1150   -7.0700  -20.8500 H    1004  WAT1004     0.2052
   3009  H2        27.0620   -7.9310  -21.6590 H    1004  WAT1004     0.2052
   3010  O         21.8590  -10.9030  -19.4040 O.3  1005  WAT1005    -0.4105
   3011  H1        21.9000  -11.2010  -18.4950 H    1005  WAT1005     0.2052
   3012  H2        22.7140  -10.5020  -19.5630 H    1005  WAT1005     0.2052
   3013  O         23.8000  -12.3240  -21.4360 O.3  1006  WAT1006    -0.4105
   3014  H1        23.2690  -12.8150  -22.0640 H    1006  WAT1006     0.2052
   3015  H2        24.4690  -11.8950  -21.9710 H    1006  WAT1006     0.2052
   3016  O         24.2870  -15.3570  -21.3570 O.3  1007  WAT1007    -0.4105
   3017  H1        24.1930  -15.9750  -22.0820 H    1007  WAT1007     0.2052
   3018  H2        23.7070  -14.6310  -21.5840 H    1007  WAT1007     0.2052
   3019  O         27.0530  -16.8000  -24.3240 O.3  1008  WAT1008    -0.4105
   3020  H1        26.6050  -16.7780  -25.1690 H    1008  WAT1008     0.2052
   3021  H2        26.4200  -17.1980  -23.7270 H    1008  WAT1008     0.2052
   3022  O         27.4590   -7.9050  -23.7030 O.3  1009  WAT1009    -0.4105
   3023  H1        27.8780   -7.0610  -23.8750 H    1009  WAT1009     0.2052
   3024  H2        26.5400   -7.7670  -23.9320 H    1009  WAT1009     0.2052
   3025  O         25.3100   -1.5990  -22.5870 O.3  1010  WAT1010    -0.4105
   3026  H1        24.7720   -0.8750  -22.9060 H    1010  WAT1010     0.2052
   3027  H2        25.5630   -2.0760  -23.3770 H    1010  WAT1010     0.2052
   3028  O         26.5620  -13.6310  -21.0610 O.3  1011  WAT1011    -0.4105
   3029  H1        27.1520  -13.9390  -20.3740 H    1011  WAT1011     0.2052
   3030  H2        25.7440  -14.1030  -20.9050 H    1011  WAT1011     0.2052
   3031  O         28.1660   -0.3640  -22.3280 O.3  1012  WAT1012    -0.4105
   3032  H1        28.0920    0.5390  -22.0210 H    1012  WAT1012     0.2052
   3033  H2        27.2640   -0.6830  -22.3560 H    1012  WAT1012     0.2052
   3034  O         19.5690   -3.0370  -29.0250 O.3  1013  WAT1013    -0.4105
   3035  H1        19.8990   -3.9050  -29.2570 H    1013  WAT1013     0.2052
   3036  H2        19.9980   -2.8310  -28.1940 H    1013  WAT1013     0.2052
   3037  O         20.0580   -2.1700  -26.2870 O.3  1014  WAT1014    -0.4105
   3038  H1        19.6210   -1.9900  -25.4540 H    1014  WAT1014     0.2052
   3039  H2        20.6260   -1.4120  -26.4290 H    1014  WAT1014     0.2052
   3040  O         20.9280   -9.2720  -25.3880 O.3  1015  WAT1015    -0.4105
   3041  H1        21.2950   -9.3600  -24.5080 H    1015  WAT1015     0.2052
   3042  H2        20.3590  -10.0360  -25.4870 H    1015  WAT1015     0.2052
   3043  O         20.4790  -12.3620  -21.4820 O.3  1016  WAT1016    -0.4105
   3044  H1        19.5850  -12.3950  -21.1420 H    1016  WAT1016     0.2052
   3045  H2        21.0190  -12.1630  -20.7170 H    1016  WAT1016     0.2052
   3046  O         20.9830  -18.0870  -27.1330 O.3  1017  WAT1017    -0.4105
   3047  H1        21.6310  -18.6370  -27.5740 H    1017  WAT1017     0.2052
   3048  H2        21.4040  -17.8320  -26.3120 H    1017  WAT1017     0.2052
   3049  O         20.7370  -17.9310  -24.3910 O.3  1018  WAT1018    -0.4105
   3050  H1        20.3880  -17.4750  -23.6250 H    1018  WAT1018     0.2052
   3051  H2        20.4050  -18.8250  -24.3090 H    1018  WAT1018     0.2052
   3052  O         22.3430   -4.7590  -20.2260 O.3  1019  WAT1019    -0.4105
   3053  H1        22.3000   -5.1300  -19.3440 H    1019  WAT1019     0.2052
   3054  H2        22.4740   -3.8210  -20.0850 H    1019  WAT1019     0.2052
   3055  O         26.0440   -3.2030  -24.6250 O.3  1020  WAT1020    -0.4105
   3056  H1        25.8030   -2.9360  -25.5120 H    1020  WAT1020     0.2052
   3057  H2        26.9840   -3.0330  -24.5690 H    1020  WAT1020     0.2052
   3058  O         28.2490  -16.7400  -20.8690 O.3  1021  WAT1021    -0.4105
   3059  H1        28.1880  -16.1480  -20.1190 H    1021  WAT1021     0.2052
   3060  H2        29.1890  -16.8470  -21.0140 H    1021  WAT1021     0.2052
   3061  O         21.4090  -18.4030  -21.1160 O.3  1022  WAT1022    -0.4105
   3062  H1        21.9570  -18.5850  -21.8790 H    1022  WAT1022     0.2052
   3063  H2        21.4740  -19.1940  -20.5800 H    1022  WAT1022     0.2052
   3064  O         22.1820   -1.8130  -23.1060 O.3  1023  WAT1023    -0.4105
   3065  H1        21.5880   -1.9440  -22.3670 H    1023  WAT1023     0.2052
   3066  H2        22.1740   -2.6490  -23.5720 H    1023  WAT1023     0.2052
   3067  O         21.8130   -4.4470  -24.1550 O.3  1024  WAT1024    -0.4105
   3068  H1        21.0860   -5.0670  -24.2220 H    1024  WAT1024     0.2052
   3069  H2        21.8740   -4.0530  -25.0250 H    1024  WAT1024     0.2052
   3070  O         25.4180   -2.2330  -27.3700 O.3  1025  WAT1025    -0.4105
   3071  H1        25.9340   -2.8440  -27.8950 H    1025  WAT1025     0.2052
   3072  H2        26.0670   -1.7300  -26.8790 H    1025  WAT1025     0.2052
   3073  O         28.1570   -1.3420  -26.5430 O.3  1026  WAT1026    -0.4105
   3074  H1        28.4450   -1.5960  -27.4200 H    1026  WAT1026     0.2052
   3075  H2        28.6690   -1.8940  -25.9530 H    1026  WAT1026     0.2052
   3076  O         29.3750  -17.6030  -25.9630 O.3  1027  WAT1027    -0.4105
   3077  H1        28.5920  -17.1280  -25.6840 H    1027  WAT1027     0.2052
   3078  H2        29.0810  -18.5070  -26.0720 H    1027  WAT1027     0.2052
   3079  O         28.2240   -0.4200  -19.1760 O.3  1028  WAT1028    -0.4105
   3080  H1        29.1510   -0.6560  -19.1330 H    1028  WAT1028     0.2052
   3081  H2        28.2090    0.4070  -19.6580 H    1028  WAT1028     0.2052
   3082  O         25.4110  -17.7560  -19.4120 O.3  1029  WAT1029    -0.4105
   3083  H1        25.1290  -17.2520  -20.1760 H    1029  WAT1029     0.2052
   3084  H2        25.7930  -18.5530  -19.7780 H    1029  WAT1029     0.2052
   3085  O         29.0500  -27.3170   28.5080 O.3  1030  WAT1030    -0.4105
   3086  H1        28.2740  -27.7970   28.7980 H    1030  WAT1030     0.2052
   3087  H2        29.7010  -27.9970   28.3330 H    1030  WAT1030     0.2052
   3088  O         23.0470  -22.9720   29.5810 O.3  1031  WAT1031    -0.4105
   3089  H1        23.3490  -23.8620   29.4020 H    1031  WAT1031     0.2052
   3090  H2        23.7910  -22.4140   29.3530 H    1031  WAT1031     0.2052
   3091  O         28.4910  -24.6420   28.5150 O.3  1032  WAT1032    -0.4105
   3092  H1        28.4220  -25.5830   28.3540 H    1032  WAT1032     0.2052
   3093  H2        29.2530  -24.5520   29.0870 H    1032  WAT1032     0.2052
   3094  O         19.5320  -25.0560   21.6750 O.3  1033  WAT1033    -0.4105
   3095  H1        19.1540  -24.5670   20.9440 H    1033  WAT1033     0.2052
   3096  H2        19.7890  -24.3840   22.3060 H    1033  WAT1033     0.2052
   3097  O         29.5290  -28.5900   23.8700 O.3  1034  WAT1034    -0.4105
   3098  H1        28.6010  -28.6560   24.0990 H    1034  WAT1034     0.2052
   3099  H2        29.6810  -27.6520   23.7550 H    1034  WAT1034     0.2052
   3100  O         25.1340  -28.0630   26.6520 O.3  1035  WAT1035    -0.4105
   3101  H1        24.7300  -28.7750   26.1560 H    1035  WAT1035     0.2052
   3102  H2        25.2210  -28.4080   27.5410 H    1035  WAT1035     0.2052
   3103  O         25.6020  -24.3760   28.8160 O.3  1036  WAT1036    -0.4105
   3104  H1        25.3050  -24.9820   28.1360 H    1036  WAT1036     0.2052
   3105  H2        26.5520  -24.3390   28.7050 H    1036  WAT1036     0.2052
   3106  O         21.8350  -29.1690   24.1520 O.3  1037  WAT1037    -0.4105
   3107  H1        21.7140  -28.4420   23.5410 H    1037  WAT1037     0.2052
   3108  H2        21.5250  -29.9380   23.6750 H    1037  WAT1037     0.2052
   3109  O         20.7180  -24.2970   26.3700 O.3  1038  WAT1038    -0.4105
   3110  H1        20.3110  -24.1560   25.5150 H    1038  WAT1038     0.2052
   3111  H2        21.6090  -24.5810   26.1670 H    1038  WAT1038     0.2052
   3112  O         24.9900  -20.0820   24.4820 O.3  1039  WAT1039    -0.4105
   3113  H1        24.8140  -20.9990   24.2690 H    1039  WAT1039     0.2052
   3114  H2        24.1360  -19.7240   24.7220 H    1039  WAT1039     0.2052
   3115  O         26.0260  -29.4820   20.7820 O.3  1040  WAT1040    -0.4105
   3116  H1        25.4580  -29.9300   20.1550 H    1040  WAT1040     0.2052
   3117  H2        26.7350  -29.1220   20.2480 H    1040  WAT1040     0.2052
   3118  O         23.5710  -25.4860   23.0540 O.3  1041  WAT1041    -0.4105
   3119  H1        22.7970  -26.0260   22.8940 H    1041  WAT1041     0.2052
   3120  H2        24.3000  -26.0050   22.7160 H    1041  WAT1041     0.2052
   3121  O         23.6150  -25.8180   26.6920 O.3  1042  WAT1042    -0.4105
   3122  H1        24.1320  -26.6210   26.6380 H    1042  WAT1042     0.2052
   3123  H2        23.1630  -25.8800   27.5340 H    1042  WAT1042     0.2052
   3124  O         28.5020  -24.5510   21.9650 O.3  1043  WAT1043    -0.4105
   3125  H1        28.8430  -23.8070   21.4690 H    1043  WAT1043     0.2052
   3126  H2        27.6730  -24.2380   22.3270 H    1043  WAT1043     0.2052
   3127  O         27.4710  -24.4700   24.7360 O.3  1044  WAT1044    -0.4105
   3128  H1        28.1580  -23.9230   25.1170 H    1044  WAT1044     0.2052
   3129  H2        26.6840  -23.9260   24.7710 H    1044  WAT1044     0.2052
   3130  O         19.6100  -28.8530   20.2280 O.3  1045  WAT1045    -0.4105
   3131  H1        20.4790  -28.5700   20.5120 H    1045  WAT1045     0.2052
   3132  H2        19.1190  -28.0390   20.1130 H    1045  WAT1045     0.2052
   3133  O         26.7730  -27.4650   24.3490 O.3  1046  WAT1046    -0.4105
   3134  H1        27.2300  -26.6550   24.5750 H    1046  WAT1046     0.2052
   3135  H2        26.4220  -27.7830   25.1810 H    1046  WAT1046     0.2052
   3136  O         19.9770  -19.6400   20.7940 O.3  1047  WAT1047    -0.4105
   3137  H1        20.3370  -19.0410   20.1400 H    1047  WAT1047     0.2052
   3138  H2        19.8360  -19.0940   21.5680 H    1047  WAT1047     0.2052
   3139  O         25.9940  -22.2570   21.6120 O.3  1048  WAT1048    -0.4105
   3140  H1        25.9850  -21.5240   20.9960 H    1048  WAT1048     0.2052
   3141  H2        25.0740  -22.5040   21.7040 H    1048  WAT1048     0.2052
   3142  O         21.5950  -27.0350   22.3560 O.3  1049  WAT1049    -0.4105
   3143  H1        20.9870  -26.2950   22.3660 H    1049  WAT1049     0.2052
   3144  H2        22.0690  -26.9450   21.5300 H    1049  WAT1049     0.2052
   3145  O         28.9800  -22.1940   20.2740 O.3  1050  WAT1050    -0.4105
   3146  H1        29.0810  -22.3980   19.3440 H    1050  WAT1050     0.2052
   3147  H2        28.0800  -22.4480   20.4790 H    1050  WAT1050     0.2052
   3148  O         27.6220  -19.6750   24.9690 O.3  1051  WAT1051    -0.4105
   3149  H1        27.8760  -19.7130   24.0470 H    1051  WAT1051     0.2052
   3150  H2        26.6730  -19.8020   24.9620 H    1051  WAT1051     0.2052
   3151  O         23.6050  -27.0740   20.1050 O.3  1052  WAT1052    -0.4105
   3152  H1        24.3710  -27.1860   20.6680 H    1052  WAT1052     0.2052
   3153  H2        23.6830  -27.7700   19.4530 H    1052  WAT1052     0.2052
   3154  O         23.1010  -19.4920   27.8920 O.3  1053  WAT1053    -0.4105
   3155  H1        23.8370  -20.0410   28.1630 H    1053  WAT1053     0.2052
   3156  H2        23.4850  -18.6270   27.7530 H    1053  WAT1053     0.2052
   3157  O         19.9860  -23.4250   23.7660 O.3  1054  WAT1054    -0.4105
   3158  H1        19.0600  -23.1830   23.7570 H    1054  WAT1054     0.2052
   3159  H2        20.4510  -22.5970   23.6450 H    1054  WAT1054     0.2052
   3160  O         26.2110  -20.3190   19.7150 O.3  1055  WAT1055    -0.4105
   3161  H1        27.0040  -20.0300   19.2630 H    1055  WAT1055     0.2052
   3162  H2        25.6920  -20.7500   19.0360 H    1055  WAT1055     0.2052
   3163  O         26.7290  -25.0990   19.5790 O.3  1056  WAT1056    -0.4105
   3164  H1        26.6240  -25.7130   20.3050 H    1056  WAT1056     0.2052
   3165  H2        26.5620  -25.6220   18.7950 H    1056  WAT1056     0.2052
   3166  O         25.6370  -27.0780   22.0790 O.3  1057  WAT1057    -0.4105
   3167  H1        26.0590  -27.2440   22.9230 H    1057  WAT1057     0.2052
   3168  H2        25.7620  -27.8880   21.5850 H    1057  WAT1057     0.2052
   3169  O         28.1500  -28.0540   19.3270 O.3  1058  WAT1058    -0.4105
   3170  H1        28.6700  -28.7690   18.9610 H    1058  WAT1058     0.2052
   3171  H2        28.7970  -27.4150   19.6270 H    1058  WAT1058     0.2052
   3172  O         28.7150  -19.9730   21.6170 O.3  1059  WAT1059    -0.4105
   3173  H1        29.6100  -19.6340   21.6390 H    1059  WAT1059     0.2052
   3174  H2        28.7460  -20.6950   20.9900 H    1059  WAT1059     0.2052
   3175  O         22.3540  -24.6000   19.8460 O.3  1060  WAT1060    -0.4105
   3176  H1        22.7920  -24.0570   20.5020 H    1060  WAT1060     0.2052
   3177  H2        22.8390  -25.4250   19.8560 H    1060  WAT1060     0.2052
   3178  O         19.5690  -21.8110   27.2980 O.3  1061  WAT1061    -0.4105
   3179  H1        19.8990  -22.6790   27.0660 H    1061  WAT1061     0.2052
   3180  H2        19.9980  -21.6050   28.1290 H    1061  WAT1061     0.2052
   3181  O         24.1650  -23.4800   24.9580 O.3  1062  WAT1062    -0.4105
   3182  H1        23.8640  -23.6040   25.8590 H    1062  WAT1062     0.2052
   3183  H2        24.0590  -24.3390   24.5500 H    1062  WAT1062     0.2052
   3184  O         19.8900  -28.4320   26.3950 O.3  1063  WAT1063    -0.4105
   3185  H1        19.2350  -28.7010   25.7510 H    1063  WAT1063     0.2052
   3186  H2        20.7280  -28.5420   25.9450 H    1063  WAT1063     0.2052
   3187  O         25.4180  -21.0070   28.9530 O.3  1064  WAT1064    -0.4105
   3188  H1        25.9340  -21.6180   28.4280 H    1064  WAT1064     0.2052
   3189  H2        26.0670  -20.5040   29.4440 H    1064  WAT1064     0.2052
   3190  O         20.0960  -19.9040   25.3780 O.3  1065  WAT1065    -0.4105
   3191  H1        19.9280  -20.5370   26.0760 H    1065  WAT1065     0.2052
   3192  H2        19.2290  -19.6980   25.0270 H    1065  WAT1065     0.2052
   3193  O         21.7020  -21.2110   22.8230 O.3  1066  WAT1066    -0.4105
   3194  H1        21.1770  -20.8300   22.1190 H    1066  WAT1066     0.2052
   3195  H2        21.6270  -20.5860   23.5440 H    1066  WAT1066     0.2052
   3196  O         24.3020  -19.2620   21.6980 O.3  1067  WAT1067    -0.4105
   3197  H1        25.0330  -19.5470   21.1500 H    1067  WAT1067     0.2052
   3198  H2        24.5610  -19.5010   22.5880 H    1067  WAT1067     0.2052
   3199  O         23.4630  -23.1460   21.7020 O.3  1068  WAT1068    -0.4105
   3200  H1        22.8340  -22.6770   22.2510 H    1068  WAT1068     0.2052
   3201  H2        23.5780  -23.9910   22.1370 H    1068  WAT1068     0.2052
   3202  O         29.0500  -27.3170    9.7330 O.3  1069  WAT1069    -0.4105
   3203  H1        28.2740  -27.7970   10.0230 H    1069  WAT1069     0.2052
   3204  H2        29.7010  -27.9970    9.5590 H    1069  WAT1069     0.2052
   3205  O         23.0660  -27.0060   10.6110 O.3  1070  WAT1070    -0.4105
   3206  H1        22.2350  -27.2610   11.0110 H    1070  WAT1070     0.2052
   3207  H2        23.6750  -26.9340   11.3470 H    1070  WAT1070     0.2052
   3208  O         23.0470  -22.9720   10.8070 O.3  1071  WAT1071    -0.4105
   3209  H1        23.3490  -23.8620   10.6280 H    1071  WAT1071     0.2052
   3210  H2        23.7910  -22.4140   10.5790 H    1071  WAT1071     0.2052
   3211  O         28.4910  -24.6420    9.7400 O.3  1072  WAT1072    -0.4105
   3212  H1        28.4220  -25.5830    9.5790 H    1072  WAT1072     0.2052
   3213  H2        29.2530  -24.5520   10.3130 H    1072  WAT1072     0.2052
   3214  O         25.0260  -26.2140   12.2050 O.3  1073  WAT1073    -0.4105
   3215  H1        24.6930  -25.5870   12.8470 H    1073  WAT1073     0.2052
   3216  H2        25.2030  -25.6880   11.4250 H    1073  WAT1073     0.2052
   3217  O         24.2380  -24.2460   14.0200 O.3  1074  WAT1074    -0.4105
   3218  H1        24.8560  -23.5710   13.7390 H    1074  WAT1074     0.2052
   3219  H2        23.3780  -23.8370   13.9290 H    1074  WAT1074     0.2052
   3220  O         19.5320  -25.0560    2.9010 O.3  1075  WAT1075    -0.4105
   3221  H1        19.1540  -24.5670    2.1690 H    1075  WAT1075     0.2052
   3222  H2        19.7890  -24.3840    3.5310 H    1075  WAT1075     0.2052
   3223  O         29.5290  -28.5900    5.0950 O.3  1076  WAT1076    -0.4105
   3224  H1        28.6010  -28.6560    5.3240 H    1076  WAT1076     0.2052
   3225  H2        29.6810  -27.6520    4.9810 H    1076  WAT1076     0.2052
   3226  O         25.1340  -28.0630    7.8770 O.3  1077  WAT1077    -0.4105
   3227  H1        24.7300  -28.7750    7.3820 H    1077  WAT1077     0.2052
   3228  H2        25.2210  -28.4080    8.7660 H    1077  WAT1077     0.2052
   3229  O         25.6020  -24.3760   10.0410 O.3  1078  WAT1078    -0.4105
   3230  H1        25.3050  -24.9820    9.3620 H    1078  WAT1078     0.2052
   3231  H2        26.5520  -24.3390    9.9300 H    1078  WAT1078     0.2052
   3232  O         24.6940  -24.6380   16.6920 O.3  1079  WAT1079    -0.4105
   3233  H1        23.7970  -24.4140   16.9390 H    1079  WAT1079     0.2052
   3234  H2        24.7200  -24.5150   15.7430 H    1079  WAT1079     0.2052
   3235  O         23.5210  -27.7670   15.2680 O.3  1080  WAT1080    -0.4105
   3236  H1        23.3820  -26.8950   15.6370 H    1080  WAT1080     0.2052
   3237  H2        22.6390  -28.1100   15.1230 H    1080  WAT1080     0.2052
   3238  O         25.3190  -21.8250   17.4760 O.3  1081  WAT1081    -0.4105
   3239  H1        25.2910  -21.4200   16.6090 H    1081  WAT1081     0.2052
   3240  H2        25.1560  -22.7540   17.3130 H    1081  WAT1081     0.2052
   3241  O         21.8350  -29.1690    5.3780 O.3  1082  WAT1082    -0.4105
   3242  H1        21.7140  -28.4420    4.7660 H    1082  WAT1082     0.2052
   3243  H2        21.5250  -29.9380    4.9010 H    1082  WAT1082     0.2052
   3244  O         19.4730  -25.9970   11.1850 O.3  1083  WAT1083    -0.4105
   3245  H1        19.5510  -25.8620   10.2400 H    1083  WAT1083     0.2052
   3246  H2        20.0870  -26.7060   11.3780 H    1083  WAT1083     0.2052
   3247  O         20.7180  -24.2970    7.5960 O.3  1084  WAT1084    -0.4105
   3248  H1        20.3110  -24.1560    6.7410 H    1084  WAT1084     0.2052
   3249  H2        21.6090  -24.5810    7.3930 H    1084  WAT1084     0.2052
   3250  O         24.9900  -20.0820    5.7080 O.3  1085  WAT1085    -0.4105
   3251  H1        24.8140  -20.9990    5.4950 H    1085  WAT1085     0.2052
   3252  H2        24.1360  -19.7240    5.9480 H    1085  WAT1085     0.2052
   3253  O         19.5290  -24.9560   13.7240 O.3  1086  WAT1086    -0.4105
   3254  H1        19.6920  -25.4250   12.9060 H    1086  WAT1086     0.2052
   3255  H2        19.9940  -25.4630   14.3890 H    1086  WAT1086     0.2052
   3256  O         26.0260  -29.4820    2.0070 O.3  1087  WAT1087    -0.4105
   3257  H1        25.4580  -29.9300    1.3810 H    1087  WAT1087     0.2052
   3258  H2        26.7350  -29.1220    1.4740 H    1087  WAT1087     0.2052
   3259  O         21.1030  -25.5810   15.8840 O.3  1088  WAT1088    -0.4105
   3260  H1        20.7190  -26.2210   16.4820 H    1088  WAT1088     0.2052
   3261  H2        21.4140  -24.8770   16.4530 H    1088  WAT1088     0.2052
   3262  O         27.2530  -28.7330   11.3650 O.3  1089  WAT1089    -0.4105
   3263  H1        27.6200  -29.2070   12.1110 H    1089  WAT1089     0.2052
   3264  H2        27.0630  -27.8590   11.7060 H    1089  WAT1089     0.2052
   3265  O         25.0430  -29.6920   13.6830 O.3  1090  WAT1090    -0.4105
   3266  H1        24.7380  -28.8130   13.9080 H    1090  WAT1090     0.2052
   3267  H2        25.9970  -29.6320   13.7190 H    1090  WAT1090     0.2052
   3268  O         23.5710  -25.4860    4.2800 O.3  1091  WAT1091    -0.4105
   3269  H1        22.7970  -26.0260    4.1200 H    1091  WAT1091     0.2052
   3270  H2        24.3000  -26.0050    3.9420 H    1091  WAT1091     0.2052
   3271  O         29.7120  -26.4180   15.9590 O.3  1092  WAT1092    -0.4105
   3272  H1        29.6450  -27.3390   15.7050 H    1092  WAT1092     0.2052
   3273  H2        29.0820  -26.3210   16.6740 H    1092  WAT1092     0.2052
   3274  O         23.6150  -25.8180    7.9180 O.3  1093  WAT1093    -0.4105
   3275  H1        24.1320  -26.6210    7.8630 H    1093  WAT1093     0.2052
   3276  H2        23.1630  -25.8800    8.7590 H    1093  WAT1093     0.2052
   3277  O         28.5020  -24.5510    3.1910 O.3  1094  WAT1094    -0.4105
   3278  H1        28.8430  -23.8070    2.6950 H    1094  WAT1094     0.2052
   3279  H2        27.6730  -24.2380    3.5530 H    1094  WAT1094     0.2052
   3280  O         21.0990  -28.8520   14.8300 O.3  1095  WAT1095    -0.4105
   3281  H1        20.7410  -28.1860   15.4180 H    1095  WAT1095     0.2052
   3282  H2        20.8050  -29.6830   15.2020 H    1095  WAT1095     0.2052
   3283  O         24.3000  -28.3930   17.7140 O.3  1096  WAT1096    -0.4105
   3284  H1        24.0000  -28.2480   16.8170 H    1096  WAT1096     0.2052
   3285  H2        25.0720  -28.9530   17.6220 H    1096  WAT1096     0.2052
   3286  O         29.6430  -23.5960   15.7100 O.3  1097  WAT1097    -0.4105
   3287  H1        29.6580  -24.5280   15.4920 H    1097  WAT1097     0.2052
   3288  H2        28.9360  -23.5100   16.3490 H    1097  WAT1097     0.2052
   3289  O         27.4710  -24.4700    5.9620 O.3  1098  WAT1098    -0.4105
   3290  H1        28.1580  -23.9230    6.3430 H    1098  WAT1098     0.2052
   3291  H2        26.6840  -23.9260    5.9970 H    1098  WAT1098     0.2052
   3292  O         19.6100  -28.8530    1.4540 O.3  1099  WAT1099    -0.4105
   3293  H1        20.4790  -28.5700    1.7370 H    1099  WAT1099     0.2052
   3294  H2        19.1190  -28.0390    1.3390 H    1099  WAT1099     0.2052
   3295  O         26.7730  -27.4650    5.5750 O.3  1100  WAT1100    -0.4105
   3296  H1        27.2300  -26.6550    5.8010 H    1100  WAT1100     0.2052
   3297  H2        26.4220  -27.7830    6.4060 H    1100  WAT1100     0.2052
   3298  O         29.0770  -21.9550   12.8040 O.3  1101  WAT1101    -0.4105
   3299  H1        29.7210  -21.7490   13.4810 H    1101  WAT1101     0.2052
   3300  H2        29.4400  -22.7160   12.3510 H    1101  WAT1101     0.2052
   3301  O         19.9770  -19.6400    2.0200 O.3  1102  WAT1102    -0.4105
   3302  H1        20.3370  -19.0410    1.3660 H    1102  WAT1102     0.2052
   3303  H2        19.8360  -19.0940    2.7930 H    1102  WAT1102     0.2052
   3304  O         19.9610  -21.3740   16.4940 O.3  1103  WAT1103    -0.4105
   3305  H1        20.0700  -22.3150   16.3540 H    1103  WAT1103     0.2052
   3306  H2        19.3090  -21.1090   15.8460 H    1103  WAT1103     0.2052
   3307  O         27.9520  -23.1030   17.8940 O.3  1104  WAT1104    -0.4105
   3308  H1        27.6320  -23.8220   18.4390 H    1104  WAT1104     0.2052
   3309  H2        27.2780  -22.4270   17.9680 H    1104  WAT1104     0.2052
   3310  O         25.9940  -22.2570    2.8370 O.3  1105  WAT1105    -0.4105
   3311  H1        25.9850  -21.5240    2.2220 H    1105  WAT1105     0.2052
   3312  H2        25.0740  -22.5040    2.9300 H    1105  WAT1105     0.2052
   3313  O         21.5950  -27.0350    3.5820 O.3  1106  WAT1106    -0.4105
   3314  H1        20.9870  -26.2950    3.5920 H    1106  WAT1106     0.2052
   3315  H2        22.0690  -26.9450    2.7560 H    1106  WAT1106     0.2052
   3316  O         28.9800  -22.1940    1.5000 O.3  1107  WAT1107    -0.4105
   3317  H1        29.0810  -22.3980    0.5700 H    1107  WAT1107     0.2052
   3318  H2        28.0800  -22.4480    1.7050 H    1107  WAT1107     0.2052
   3319  O         27.6220  -19.6750    6.1950 O.3  1108  WAT1108    -0.4105
   3320  H1        27.8760  -19.7130    5.2730 H    1108  WAT1108     0.2052
   3321  H2        26.6730  -19.8020    6.1870 H    1108  WAT1108     0.2052
   3322  O         23.6050  -27.0740    1.3310 O.3  1109  WAT1109    -0.4105
   3323  H1        24.3710  -27.1860    1.8930 H    1109  WAT1109     0.2052
   3324  H2        23.6830  -27.7700    0.6790 H    1109  WAT1109     0.2052
   3325  O         23.1010  -19.4920    9.1180 O.3  1110  WAT1110    -0.4105
   3326  H1        23.8370  -20.0410    9.3880 H    1110  WAT1110     0.2052
   3327  H2        23.4850  -18.6270    8.9780 H    1110  WAT1110     0.2052
   3328  O         19.9860  -23.4250    4.9920 O.3  1111  WAT1111    -0.4105
   3329  H1        19.0600  -23.1830    4.9820 H    1111  WAT1111     0.2052
   3330  H2        20.4510  -22.5970    4.8700 H    1111  WAT1111     0.2052
   3331  O         22.1070  -20.3070   18.3060 O.3  1112  WAT1112    -0.4105
   3332  H1        22.9080  -19.9860   18.7200 H    1112  WAT1112     0.2052
   3333  H2        21.5920  -20.6680   19.0280 H    1112  WAT1112     0.2052
   3334  O         26.2110  -20.3190    0.9400 O.3  1113  WAT1113    -0.4105
   3335  H1        27.0040  -20.0300    0.4880 H    1113  WAT1113     0.2052
   3336  H2        25.6920  -20.7500    0.2610 H    1113  WAT1113     0.2052
   3337  O         19.8270  -27.8200   17.2500 O.3  1114  WAT1114    -0.4105
   3338  H1        20.3310  -28.3990   17.8210 H    1114  WAT1114     0.2052
   3339  H2        19.0880  -27.5360   17.7870 H    1114  WAT1114     0.2052
   3340  O         26.7290  -25.0990    0.8040 O.3  1115  WAT1115    -0.4105
   3341  H1        26.6240  -25.7130    1.5310 H    1115  WAT1115     0.2052
   3342  H2        26.5620  -25.6220    0.0210 H    1115  WAT1115     0.2052
   3343  O         26.8810  -26.4130   16.7830 O.3  1116  WAT1116    -0.4105
   3344  H1        26.1150  -25.8450   16.6990 H    1116  WAT1116     0.2052
   3345  H2        27.0620  -26.7050   15.8900 H    1116  WAT1116     0.2052
   3346  O         21.8590  -29.6770   18.1450 O.3  1117  WAT1117    -0.4105
   3347  H1        21.9000  -29.9760   19.0530 H    1117  WAT1117     0.2052
   3348  H2        22.7140  -29.2760   17.9860 H    1117  WAT1117     0.2052
   3349  O         25.6370  -27.0780    3.3050 O.3  1118  WAT1118    -0.4105
   3350  H1        26.0590  -27.2440    4.1480 H    1118  WAT1118     0.2052
   3351  H2        25.7620  -27.8880    2.8110 H    1118  WAT1118     0.2052
   3352  O         28.1500  -28.0540    0.5530 O.3  1119  WAT1119    -0.4105
   3353  H1        28.6700  -28.7690    0.1870 H    1119  WAT1119     0.2052
   3354  H2        28.7970  -27.4150    0.8530 H    1119  WAT1119     0.2052
   3355  O         27.4590  -26.6790   13.8460 O.3  1120  WAT1120    -0.4105
   3356  H1        27.8780  -25.8360   13.6740 H    1120  WAT1120     0.2052
   3357  H2        26.5400  -26.5420   13.6170 H    1120  WAT1120     0.2052
   3358  O         25.3100  -20.3740   14.9620 O.3  1121  WAT1121    -0.4105
   3359  H1        24.7720  -19.6490   14.6430 H    1121  WAT1121     0.2052
   3360  H2        25.5630  -20.8510   14.1710 H    1121  WAT1121     0.2052
   3361  O         28.1660  -19.1390   15.2200 O.3  1122  WAT1122    -0.4105
   3362  H1        28.0920  -18.2350   15.5280 H    1122  WAT1122     0.2052
   3363  H2        27.2640  -19.4570   15.1930 H    1122  WAT1122     0.2052
   3364  O         28.7150  -19.9730    2.8430 O.3  1123  WAT1123    -0.4105
   3365  H1        29.6100  -19.6340    2.8650 H    1123  WAT1123     0.2052
   3366  H2        28.7460  -20.6950    2.2150 H    1123  WAT1123     0.2052
   3367  O         22.3540  -24.6000    1.0720 O.3  1124  WAT1124    -0.4105
   3368  H1        22.7920  -24.0570    1.7270 H    1124  WAT1124     0.2052
   3369  H2        22.8390  -25.4250    1.0810 H    1124  WAT1124     0.2052
   3370  O         19.5690  -21.8110    8.5240 O.3  1125  WAT1125    -0.4105
   3371  H1        19.8990  -22.6790    8.2920 H    1125  WAT1125     0.2052
   3372  H2        19.9980  -21.6050    9.3540 H    1125  WAT1125     0.2052
   3373  O         24.1650  -23.4800    6.1840 O.3  1126  WAT1126    -0.4105
   3374  H1        23.8640  -23.6040    7.0840 H    1126  WAT1126     0.2052
   3375  H2        24.0590  -24.3390    5.7760 H    1126  WAT1126     0.2052
   3376  O         20.0580  -20.9440   11.2620 O.3  1127  WAT1127    -0.4105
   3377  H1        19.6210  -20.7640   12.0940 H    1127  WAT1127     0.2052
   3378  H2        20.6260  -20.1870   11.1200 H    1127  WAT1127     0.2052
   3379  O         19.8900  -28.4320    7.6210 O.3  1128  WAT1128    -0.4105
   3380  H1        19.2350  -28.7010    6.9770 H    1128  WAT1128     0.2052
   3381  H2        20.7280  -28.5420    7.1710 H    1128  WAT1128     0.2052
   3382  O         20.9280  -28.0470   12.1610 O.3  1129  WAT1129    -0.4105
   3383  H1        21.2950  -28.1340   13.0410 H    1129  WAT1129     0.2052
   3384  H2        20.3590  -28.8100   12.0620 H    1129  WAT1129     0.2052
   3385  O         22.3430  -23.5330   17.3230 O.3  1130  WAT1130    -0.4105
   3386  H1        22.3000  -23.9040   18.2050 H    1130  WAT1130     0.2052
   3387  H2        22.4740  -22.5960   17.4630 H    1130  WAT1130     0.2052
   3388  O         26.0440  -21.9780   12.9240 O.3  1131  WAT1131    -0.4105
   3389  H1        25.8030  -21.7100   12.0370 H    1131  WAT1131     0.2052
   3390  H2        26.9840  -21.8070   12.9790 H    1131  WAT1131     0.2052
   3391  O         22.1820  -20.5870   14.4430 O.3  1132  WAT1132    -0.4105
   3392  H1        21.5880  -20.7190   15.1820 H    1132  WAT1132     0.2052
   3393  H2        22.1740  -21.4230   13.9770 H    1132  WAT1132     0.2052
   3394  O         21.8130  -23.2210   13.3940 O.3  1133  WAT1133    -0.4105
   3395  H1        21.0860  -23.8410   13.3260 H    1133  WAT1133     0.2052
   3396  H2        21.8740  -22.8270   12.5240 H    1133  WAT1133     0.2052
   3397  O         25.4180  -21.0070   10.1790 O.3  1134  WAT1134    -0.4105
   3398  H1        25.9340  -21.6180    9.6540 H    1134  WAT1134     0.2052
   3399  H2        26.0670  -20.5040   10.6700 H    1134  WAT1134     0.2052
   3400  O         28.1570  -20.1160   11.0060 O.3  1135  WAT1135    -0.4105
   3401  H1        28.4450  -20.3710   10.1290 H    1135  WAT1135     0.2052
   3402  H2        28.6690  -20.6680   11.5960 H    1135  WAT1135     0.2052
   3403  O         20.0960  -19.9040    6.6030 O.3  1136  WAT1136    -0.4105
   3404  H1        19.9280  -20.5370    7.3020 H    1136  WAT1136     0.2052
   3405  H2        19.2290  -19.6980    6.2530 H    1136  WAT1136     0.2052
   3406  O         21.7020  -21.2110    4.0480 O.3  1137  WAT1137    -0.4105
   3407  H1        21.1770  -20.8300    3.3450 H    1137  WAT1137     0.2052
   3408  H2        21.6270  -20.5860    4.7690 H    1137  WAT1137     0.2052
   3409  O         28.2240  -19.1940   18.3720 O.3  1138  WAT1138    -0.4105
   3410  H1        29.1510  -19.4300   18.4160 H    1138  WAT1138     0.2052
   3411  H2        28.2090  -18.3670   17.8910 H    1138  WAT1138     0.2052
   3412  O         24.3020  -19.2620    2.9230 O.3  1139  WAT1139    -0.4105
   3413  H1        25.0330  -19.5470    2.3760 H    1139  WAT1139     0.2052
   3414  H2        24.5610  -19.5010    3.8130 H    1139  WAT1139     0.2052
   3415  O         23.4630  -23.1460    2.9280 O.3  1140  WAT1140    -0.4105
   3416  H1        22.8340  -22.6770    3.4770 H    1140  WAT1140     0.2052
   3417  H2        23.5780  -23.9910    3.3630 H    1140  WAT1140     0.2052
   3418  O         29.0500  -27.3170   -9.0410 O.3  1141  WAT1141    -0.4105
   3419  H1        28.2740  -27.7970   -8.7510 H    1141  WAT1141     0.2052
   3420  H2        29.7010  -27.9970   -9.2150 H    1141  WAT1141     0.2052
   3421  O         23.0660  -27.0060   -8.1630 O.3  1142  WAT1142    -0.4105
   3422  H1        22.2350  -27.2610   -7.7640 H    1142  WAT1142     0.2052
   3423  H2        23.6750  -26.9340   -7.4280 H    1142  WAT1142     0.2052
   3424  O         23.0470  -22.9720   -7.9680 O.3  1143  WAT1143    -0.4105
   3425  H1        23.3490  -23.8620   -8.1470 H    1143  WAT1143     0.2052
   3426  H2        23.7910  -22.4140   -8.1950 H    1143  WAT1143     0.2052
   3427  O         28.4910  -24.6420   -9.0340 O.3  1144  WAT1144    -0.4105
   3428  H1        28.4220  -25.5830   -9.1950 H    1144  WAT1144     0.2052
   3429  H2        29.2530  -24.5520   -8.4620 H    1144  WAT1144     0.2052
   3430  O         25.0260  -26.2140   -6.5690 O.3  1145  WAT1145    -0.4105
   3431  H1        24.6930  -25.5870   -5.9270 H    1145  WAT1145     0.2052
   3432  H2        25.2030  -25.6880   -7.3490 H    1145  WAT1145     0.2052
   3433  O         24.2380  -24.2460   -4.7540 O.3  1146  WAT1146    -0.4105
   3434  H1        24.8560  -23.5710   -5.0360 H    1146  WAT1146     0.2052
   3435  H2        23.3780  -23.8370   -4.8450 H    1146  WAT1146     0.2052
   3436  O         19.5320  -25.0560  -15.8740 O.3  1147  WAT1147    -0.4105
   3437  H1        19.1540  -24.5670  -16.6050 H    1147  WAT1147     0.2052
   3438  H2        19.7890  -24.3840  -15.2430 H    1147  WAT1147     0.2052
   3439  O         29.5290  -28.5900  -13.6790 O.3  1148  WAT1148    -0.4105
   3440  H1        28.6010  -28.6560  -13.4500 H    1148  WAT1148     0.2052
   3441  H2        29.6810  -27.6520  -13.7930 H    1148  WAT1148     0.2052
   3442  O         25.1340  -28.0630  -10.8970 O.3  1149  WAT1149    -0.4105
   3443  H1        24.7300  -28.7750  -11.3920 H    1149  WAT1149     0.2052
   3444  H2        25.2210  -28.4080  -10.0080 H    1149  WAT1149     0.2052
   3445  O         25.6020  -24.3760   -8.7330 O.3  1150  WAT1150    -0.4105
   3446  H1        25.3050  -24.9820   -9.4120 H    1150  WAT1150     0.2052
   3447  H2        26.5520  -24.3390   -8.8440 H    1150  WAT1150     0.2052
   3448  O         24.6940  -24.6380   -2.0820 O.3  1151  WAT1151    -0.4105
   3449  H1        23.7970  -24.4140   -1.8350 H    1151  WAT1151     0.2052
   3450  H2        24.7200  -24.5150   -3.0310 H    1151  WAT1151     0.2052
   3451  O         23.5210  -27.7670   -3.5070 O.3  1152  WAT1152    -0.4105
   3452  H1        23.3820  -26.8950   -3.1380 H    1152  WAT1152     0.2052
   3453  H2        22.6390  -28.1100   -3.6520 H    1152  WAT1152     0.2052
   3454  O         25.3190  -21.8250   -1.2980 O.3  1153  WAT1153    -0.4105
   3455  H1        25.2910  -21.4200   -2.1650 H    1153  WAT1153     0.2052
   3456  H2        25.1560  -22.7540   -1.4610 H    1153  WAT1153     0.2052
   3457  O         21.8350  -29.1690  -13.3960 O.3  1154  WAT1154    -0.4105
   3458  H1        21.7140  -28.4420  -14.0080 H    1154  WAT1154     0.2052
   3459  H2        21.5250  -29.9380  -13.8740 H    1154  WAT1154     0.2052
   3460  O         19.4730  -25.9970   -7.5890 O.3  1155  WAT1155    -0.4105
   3461  H1        19.5510  -25.8620   -8.5340 H    1155  WAT1155     0.2052
   3462  H2        20.0870  -26.7060   -7.3970 H    1155  WAT1155     0.2052
   3463  O         20.7180  -24.2970  -11.1790 O.3  1156  WAT1156    -0.4105
   3464  H1        20.3110  -24.1560  -12.0330 H    1156  WAT1156     0.2052
   3465  H2        21.6090  -24.5810  -11.3820 H    1156  WAT1156     0.2052
   3466  O         24.9900  -20.0820  -13.0670 O.3  1157  WAT1157    -0.4105
   3467  H1        24.8140  -20.9990  -13.2800 H    1157  WAT1157     0.2052
   3468  H2        24.1360  -19.7240  -12.8270 H    1157  WAT1157     0.2052
   3469  O         19.5290  -24.9560   -5.0500 O.3  1158  WAT1158    -0.4105
   3470  H1        19.6920  -25.4250   -5.8680 H    1158  WAT1158     0.2052
   3471  H2        19.9940  -25.4630   -4.3850 H    1158  WAT1158     0.2052
   3472  O         26.0260  -29.4820  -16.7670 O.3  1159  WAT1159    -0.4105
   3473  H1        25.4580  -29.9300  -17.3930 H    1159  WAT1159     0.2052
   3474  H2        26.7350  -29.1220  -17.3010 H    1159  WAT1159     0.2052
   3475  O         21.1030  -25.5810   -2.8900 O.3  1160  WAT1160    -0.4105
   3476  H1        20.7190  -26.2210   -2.2920 H    1160  WAT1160     0.2052
   3477  H2        21.4140  -24.8770   -2.3210 H    1160  WAT1160     0.2052
   3478  O         27.2530  -28.7330   -7.4100 O.3  1161  WAT1161    -0.4105
   3479  H1        27.6200  -29.2070   -6.6630 H    1161  WAT1161     0.2052
   3480  H2        27.0630  -27.8590   -7.0690 H    1161  WAT1161     0.2052
   3481  O         25.0430  -29.6920   -5.0910 O.3  1162  WAT1162    -0.4105
   3482  H1        24.7380  -28.8130   -4.8660 H    1162  WAT1162     0.2052
   3483  H2        25.9970  -29.6320   -5.0550 H    1162  WAT1162     0.2052
   3484  O         23.5710  -25.4860  -14.4940 O.3  1163  WAT1163    -0.4105
   3485  H1        22.7970  -26.0260  -14.6550 H    1163  WAT1163     0.2052
   3486  H2        24.3000  -26.0050  -14.8330 H    1163  WAT1163     0.2052
   3487  O         29.7120  -26.4180   -2.8150 O.3  1164  WAT1164    -0.4105
   3488  H1        29.6450  -27.3390   -3.0690 H    1164  WAT1164     0.2052
   3489  H2        29.0820  -26.3210   -2.1000 H    1164  WAT1164     0.2052
   3490  O         23.6150  -25.8180  -10.8570 O.3  1165  WAT1165    -0.4105
   3491  H1        24.1320  -26.6210  -10.9110 H    1165  WAT1165     0.2052
   3492  H2        23.1630  -25.8800  -10.0150 H    1165  WAT1165     0.2052
   3493  O         28.5020  -24.5510  -15.5840 O.3  1166  WAT1166    -0.4105
   3494  H1        28.8430  -23.8070  -16.0790 H    1166  WAT1166     0.2052
   3495  H2        27.6730  -24.2380  -15.2210 H    1166  WAT1166     0.2052
   3496  O         21.0990  -28.8520   -3.9440 O.3  1167  WAT1167    -0.4105
   3497  H1        20.7410  -28.1860   -3.3570 H    1167  WAT1167     0.2052
   3498  H2        20.8050  -29.6830   -3.5730 H    1167  WAT1167     0.2052
   3499  O         24.3000  -28.3930   -1.0600 O.3  1168  WAT1168    -0.4105
   3500  H1        24.0000  -28.2480   -1.9570 H    1168  WAT1168     0.2052
   3501  H2        25.0720  -28.9530   -1.1530 H    1168  WAT1168     0.2052
   3502  O         29.6430  -23.5960   -3.0650 O.3  1169  WAT1169    -0.4105
   3503  H1        29.6580  -24.5280   -3.2830 H    1169  WAT1169     0.2052
   3504  H2        28.9360  -23.5100   -2.4260 H    1169  WAT1169     0.2052
   3505  O         27.4710  -24.4700  -12.8120 O.3  1170  WAT1170    -0.4105
   3506  H1        28.1580  -23.9230  -12.4310 H    1170  WAT1170     0.2052
   3507  H2        26.6840  -23.9260  -12.7770 H    1170  WAT1170     0.2052
   3508  O         19.6100  -28.8530  -17.3210 O.3  1171  WAT1171    -0.4105
   3509  H1        20.4790  -28.5700  -17.0370 H    1171  WAT1171     0.2052
   3510  H2        19.1190  -28.0390  -17.4360 H    1171  WAT1171     0.2052
   3511  O         26.7730  -27.4650  -13.2000 O.3  1172  WAT1172    -0.4105
   3512  H1        27.2300  -26.6550  -12.9740 H    1172  WAT1172     0.2052
   3513  H2        26.4220  -27.7830  -12.3680 H    1172  WAT1172     0.2052
   3514  O         29.0770  -21.9550   -5.9700 O.3  1173  WAT1173    -0.4105
   3515  H1        29.7210  -21.7490   -5.2930 H    1173  WAT1173     0.2052
   3516  H2        29.4400  -22.7160   -6.4230 H    1173  WAT1173     0.2052
   3517  O         19.9770  -19.6400  -16.7540 O.3  1174  WAT1174    -0.4105
   3518  H1        20.3370  -19.0410  -17.4090 H    1174  WAT1174     0.2052
   3519  H2        19.8360  -19.0940  -15.9810 H    1174  WAT1174     0.2052
   3520  O         19.9610  -21.3740   -2.2800 O.3  1175  WAT1175    -0.4105
   3521  H1        20.0700  -22.3150   -2.4210 H    1175  WAT1175     0.2052
   3522  H2        19.3090  -21.1090   -2.9290 H    1175  WAT1175     0.2052
   3523  O         27.9520  -23.1030   -0.8800 O.3  1176  WAT1176    -0.4105
   3524  H1        27.6320  -23.8220   -0.3360 H    1176  WAT1176     0.2052
   3525  H2        27.2780  -22.4270   -0.8070 H    1176  WAT1176     0.2052
   3526  O         25.9940  -22.2570  -15.9370 O.3  1177  WAT1177    -0.4105
   3527  H1        25.9850  -21.5240  -16.5530 H    1177  WAT1177     0.2052
   3528  H2        25.0740  -22.5040  -15.8440 H    1177  WAT1177     0.2052
   3529  O         21.5950  -27.0350  -15.1920 O.3  1178  WAT1178    -0.4105
   3530  H1        20.9870  -26.2950  -15.1830 H    1178  WAT1178     0.2052
   3531  H2        22.0690  -26.9450  -16.0190 H    1178  WAT1178     0.2052
   3532  O         28.9800  -22.1940  -17.2740 O.3  1179  WAT1179    -0.4105
   3533  H1        29.0810  -22.3980  -18.2040 H    1179  WAT1179     0.2052
   3534  H2        28.0800  -22.4480  -17.0700 H    1179  WAT1179     0.2052
   3535  O         27.6220  -19.6750  -12.5800 O.3  1180  WAT1180    -0.4105
   3536  H1        27.8760  -19.7130  -13.5020 H    1180  WAT1180     0.2052
   3537  H2        26.6730  -19.8020  -12.5870 H    1180  WAT1180     0.2052
   3538  O         23.6050  -27.0740  -17.4430 O.3  1181  WAT1181    -0.4105
   3539  H1        24.3710  -27.1860  -16.8810 H    1181  WAT1181     0.2052
   3540  H2        23.6830  -27.7700  -18.0960 H    1181  WAT1181     0.2052
   3541  O         23.1010  -19.4920   -9.6570 O.3  1182  WAT1182    -0.4105
   3542  H1        23.8370  -20.0410   -9.3860 H    1182  WAT1182     0.2052
   3543  H2        23.4850  -18.6270   -9.7960 H    1182  WAT1182     0.2052
   3544  O         19.9860  -23.4250  -13.7830 O.3  1183  WAT1183    -0.4105
   3545  H1        19.0600  -23.1830  -13.7920 H    1183  WAT1183     0.2052
   3546  H2        20.4510  -22.5970  -13.9040 H    1183  WAT1183     0.2052
   3547  O         22.1070  -20.3070   -0.4680 O.3  1184  WAT1184    -0.4105
   3548  H1        22.9080  -19.9860   -0.0550 H    1184  WAT1184     0.2052
   3549  H2        21.5920  -20.6680    0.2540 H    1184  WAT1184     0.2052
   3550  O         26.2110  -20.3190  -17.8340 O.3  1185  WAT1185    -0.4105
   3551  H1        27.0040  -20.0300  -18.2860 H    1185  WAT1185     0.2052
   3552  H2        25.6920  -20.7500  -18.5130 H    1185  WAT1185     0.2052
   3553  O         19.8270  -27.8200   -1.5250 O.3  1186  WAT1186    -0.4105
   3554  H1        20.3310  -28.3990   -0.9530 H    1186  WAT1186     0.2052
   3555  H2        19.0880  -27.5360   -0.9870 H    1186  WAT1186     0.2052
   3556  O         26.7290  -25.0990  -17.9700 O.3  1187  WAT1187    -0.4105
   3557  H1        26.6240  -25.7130  -17.2440 H    1187  WAT1187     0.2052
   3558  H2        26.5620  -25.6220  -18.7540 H    1187  WAT1187     0.2052
   3559  O         26.8810  -26.4130   -1.9910 O.3  1188  WAT1188    -0.4105
   3560  H1        26.1150  -25.8450   -2.0760 H    1188  WAT1188     0.2052
   3561  H2        27.0620  -26.7050   -2.8840 H    1188  WAT1188     0.2052
   3562  O         21.8590  -29.6770   -0.6300 O.3  1189  WAT1189    -0.4105
   3563  H1        21.9000  -29.9760    0.2790 H    1189  WAT1189     0.2052
   3564  H2        22.7140  -29.2760   -0.7890 H    1189  WAT1189     0.2052
   3565  O         25.6370  -27.0780  -15.4690 O.3  1190  WAT1190    -0.4105
   3566  H1        26.0590  -27.2440  -14.6260 H    1190  WAT1190     0.2052
   3567  H2        25.7620  -27.8880  -15.9640 H    1190  WAT1190     0.2052
   3568  O         28.1500  -28.0540  -18.2210 O.3  1191  WAT1191    -0.4105
   3569  H1        28.6700  -28.7690  -18.5870 H    1191  WAT1191     0.2052
   3570  H2        28.7970  -27.4150  -17.9210 H    1191  WAT1191     0.2052
   3571  O         27.4590  -26.6790   -4.9280 O.3  1192  WAT1192    -0.4105
   3572  H1        27.8780  -25.8360   -5.1010 H    1192  WAT1192     0.2052
   3573  H2        26.5400  -26.5420   -5.1580 H    1192  WAT1192     0.2052
   3574  O         25.3100  -20.3740   -3.8130 O.3  1193  WAT1193    -0.4105
   3575  H1        24.7720  -19.6490   -4.1320 H    1193  WAT1193     0.2052
   3576  H2        25.5630  -20.8510   -4.6030 H    1193  WAT1193     0.2052
   3577  O         28.1660  -19.1390   -3.5540 O.3  1194  WAT1194    -0.4105
   3578  H1        28.0920  -18.2350   -3.2470 H    1194  WAT1194     0.2052
   3579  H2        27.2640  -19.4570   -3.5820 H    1194  WAT1194     0.2052
   3580  O         28.7150  -19.9730  -15.9310 O.3  1195  WAT1195    -0.4105
   3581  H1        29.6100  -19.6340  -15.9090 H    1195  WAT1195     0.2052
   3582  H2        28.7460  -20.6950  -16.5590 H    1195  WAT1195     0.2052
   3583  O         22.3540  -24.6000  -17.7030 O.3  1196  WAT1196    -0.4105
   3584  H1        22.7920  -24.0570  -17.0470 H    1196  WAT1196     0.2052
   3585  H2        22.8390  -25.4250  -17.6930 H    1196  WAT1196     0.2052
   3586  O         19.5690  -21.8110  -10.2510 O.3  1197  WAT1197    -0.4105
   3587  H1        19.8990  -22.6790  -10.4830 H    1197  WAT1197     0.2052
   3588  H2        19.9980  -21.6050   -9.4200 H    1197  WAT1197     0.2052
   3589  O         24.1650  -23.4800  -12.5900 O.3  1198  WAT1198    -0.4105
   3590  H1        23.8640  -23.6040  -11.6900 H    1198  WAT1198     0.2052
   3591  H2        24.0590  -24.3390  -12.9990 H    1198  WAT1198     0.2052
   3592  O         20.0580  -20.9440   -7.5120 O.3  1199  WAT1199    -0.4105
   3593  H1        19.6210  -20.7640   -6.6800 H    1199  WAT1199     0.2052
   3594  H2        20.6260  -20.1870   -7.6540 H    1199  WAT1199     0.2052
   3595  O         19.8900  -28.4320  -11.1540 O.3  1200  WAT1200    -0.4105
   3596  H1        19.2350  -28.7010  -11.7980 H    1200  WAT1200     0.2052
   3597  H2        20.7280  -28.5420  -11.6030 H    1200  WAT1200     0.2052
   3598  O         20.9280  -28.0470   -6.6130 O.3  1201  WAT1201    -0.4105
   3599  H1        21.2950  -28.1340   -5.7340 H    1201  WAT1201     0.2052
   3600  H2        20.3590  -28.8100   -6.7130 H    1201  WAT1201     0.2052
   3601  O         22.3430  -23.5330   -1.4510 O.3  1202  WAT1202    -0.4105
   3602  H1        22.3000  -23.9040   -0.5700 H    1202  WAT1202     0.2052
   3603  H2        22.4740  -22.5960   -1.3110 H    1202  WAT1202     0.2052
   3604  O         26.0440  -21.9780   -5.8500 O.3  1203  WAT1203    -0.4105
   3605  H1        25.8030  -21.7100   -6.7370 H    1203  WAT1203     0.2052
   3606  H2        26.9840  -21.8070   -5.7950 H    1203  WAT1203     0.2052
   3607  O         22.1820  -20.5870   -4.3310 O.3  1204  WAT1204    -0.4105
   3608  H1        21.5880  -20.7190   -3.5920 H    1204  WAT1204     0.2052
   3609  H2        22.1740  -21.4230   -4.7970 H    1204  WAT1204     0.2052
   3610  O         21.8130  -23.2210   -5.3810 O.3  1205  WAT1205    -0.4105
   3611  H1        21.0860  -23.8410   -5.4480 H    1205  WAT1205     0.2052
   3612  H2        21.8740  -22.8270   -6.2510 H    1205  WAT1205     0.2052
   3613  O         25.4180  -21.0070   -8.5960 O.3  1206  WAT1206    -0.4105
   3614  H1        25.9340  -21.6180   -9.1210 H    1206  WAT1206     0.2052
   3615  H2        26.0670  -20.5040   -8.1050 H    1206  WAT1206     0.2052
   3616  O         28.1570  -20.1160   -7.7690 O.3  1207  WAT1207    -0.4105
   3617  H1        28.4450  -20.3710   -8.6450 H    1207  WAT1207     0.2052
   3618  H2        28.6690  -20.6680   -7.1780 H    1207  WAT1207     0.2052
   3619  O         20.0960  -19.9040  -12.1710 O.3  1208  WAT1208    -0.4105
   3620  H1        19.9280  -20.5370  -11.4730 H    1208  WAT1208     0.2052
   3621  H2        19.2290  -19.6980  -12.5220 H    1208  WAT1208     0.2052
   3622  O         21.7020  -21.2110  -14.7260 O.3  1209  WAT1209    -0.4105
   3623  H1        21.1770  -20.8300  -15.4300 H    1209  WAT1209     0.2052
   3624  H2        21.6270  -20.5860  -14.0050 H    1209  WAT1209     0.2052
   3625  O         28.2240  -19.1940   -0.4020 O.3  1210  WAT1210    -0.4105
   3626  H1        29.1510  -19.4300   -0.3580 H    1210  WAT1210     0.2052
   3627  H2        28.2090  -18.3670   -0.8830 H    1210  WAT1210     0.2052
   3628  O         24.3020  -19.2620  -15.8510 O.3  1211  WAT1211    -0.4105
   3629  H1        25.0330  -19.5470  -16.3990 H    1211  WAT1211     0.2052
   3630  H2        24.5610  -19.5010  -14.9610 H    1211  WAT1211     0.2052
   3631  O         23.4630  -23.1460  -15.8460 O.3  1212  WAT1212    -0.4105
   3632  H1        22.8340  -22.6770  -15.2980 H    1212  WAT1212     0.2052
   3633  H2        23.5780  -23.9910  -15.4120 H    1212  WAT1212     0.2052
   3634  O         29.0500  -27.3170  -27.8150 O.3  1213  WAT1213    -0.4105
   3635  H1        28.2740  -27.7970  -27.5250 H    1213  WAT1213     0.2052
   3636  H2        29.7010  -27.9970  -27.9900 H    1213  WAT1213     0.2052
   3637  O         23.0660  -27.0060  -26.9380 O.3  1214  WAT1214    -0.4105
   3638  H1        22.2350  -27.2610  -26.5380 H    1214  WAT1214     0.2052
   3639  H2        23.6750  -26.9340  -26.2020 H    1214  WAT1214     0.2052
   3640  O         23.0470  -22.9720  -26.7420 O.3  1215  WAT1215    -0.4105
   3641  H1        23.3490  -23.8620  -26.9210 H    1215  WAT1215     0.2052
   3642  H2        23.7910  -22.4140  -26.9700 H    1215  WAT1215     0.2052
   3643  O         28.4910  -24.6420  -27.8080 O.3  1216  WAT1216    -0.4105
   3644  H1        28.4220  -25.5830  -27.9690 H    1216  WAT1216     0.2052
   3645  H2        29.2530  -24.5520  -27.2360 H    1216  WAT1216     0.2052
   3646  O         25.0260  -26.2140  -25.3430 O.3  1217  WAT1217    -0.4105
   3647  H1        24.6930  -25.5870  -24.7010 H    1217  WAT1217     0.2052
   3648  H2        25.2030  -25.6880  -26.1230 H    1217  WAT1217     0.2052
   3649  O         24.2380  -24.2460  -23.5290 O.3  1218  WAT1218    -0.4105
   3650  H1        24.8560  -23.5710  -23.8100 H    1218  WAT1218     0.2052
   3651  H2        23.3780  -23.8370  -23.6200 H    1218  WAT1218     0.2052
   3652  O         25.6020  -24.3760  -27.5070 O.3  1219  WAT1219    -0.4105
   3653  H1        25.3050  -24.9820  -28.1870 H    1219  WAT1219     0.2052
   3654  H2        26.5520  -24.3390  -27.6180 H    1219  WAT1219     0.2052
   3655  O         24.6940  -24.6380  -20.8570 O.3  1220  WAT1220    -0.4105
   3656  H1        23.7970  -24.4140  -20.6090 H    1220  WAT1220     0.2052
   3657  H2        24.7200  -24.5150  -21.8050 H    1220  WAT1220     0.2052
   3658  O         23.5210  -27.7670  -22.2810 O.3  1221  WAT1221    -0.4105
   3659  H1        23.3820  -26.8950  -21.9120 H    1221  WAT1221     0.2052
   3660  H2        22.6390  -28.1100  -22.4260 H    1221  WAT1221     0.2052
   3661  O         25.3190  -21.8250  -20.0720 O.3  1222  WAT1222    -0.4105
   3662  H1        25.2910  -21.4200  -20.9400 H    1222  WAT1222     0.2052
   3663  H2        25.1560  -22.7540  -20.2350 H    1222  WAT1222     0.2052
   3664  O         19.4730  -25.9970  -26.3640 O.3  1223  WAT1223    -0.4105
   3665  H1        19.5510  -25.8620  -27.3080 H    1223  WAT1223     0.2052
   3666  H2        20.0870  -26.7060  -26.1710 H    1223  WAT1223     0.2052
   3667  O         19.5290  -24.9560  -23.8240 O.3  1224  WAT1224    -0.4105
   3668  H1        19.6920  -25.4250  -24.6420 H    1224  WAT1224     0.2052
   3669  H2        19.9940  -25.4630  -23.1590 H    1224  WAT1224     0.2052
   3670  O         21.1030  -25.5810  -21.6650 O.3  1225  WAT1225    -0.4105
   3671  H1        20.7190  -26.2210  -21.0660 H    1225  WAT1225     0.2052
   3672  H2        21.4140  -24.8770  -21.0950 H    1225  WAT1225     0.2052
   3673  O         27.2530  -28.7330  -26.1840 O.3  1226  WAT1226    -0.4105
   3674  H1        27.6200  -29.2070  -25.4380 H    1226  WAT1226     0.2052
   3675  H2        27.0630  -27.8590  -25.8430 H    1226  WAT1226     0.2052
   3676  O         25.0430  -29.6920  -23.8650 O.3  1227  WAT1227    -0.4105
   3677  H1        24.7380  -28.8130  -23.6400 H    1227  WAT1227     0.2052
   3678  H2        25.9970  -29.6320  -23.8300 H    1227  WAT1227     0.2052
   3679  O         29.7120  -26.4180  -21.5890 O.3  1228  WAT1228    -0.4105
   3680  H1        29.6450  -27.3390  -21.8430 H    1228  WAT1228     0.2052
   3681  H2        29.0820  -26.3210  -20.8750 H    1228  WAT1228     0.2052
   3682  O         23.6150  -25.8180  -29.6310 O.3  1229  WAT1229    -0.4105
   3683  H1        24.1320  -26.6210  -29.6850 H    1229  WAT1229     0.2052
   3684  H2        23.1630  -25.8800  -28.7890 H    1229  WAT1229     0.2052
   3685  O         21.0990  -28.8520  -22.7180 O.3  1230  WAT1230    -0.4105
   3686  H1        20.7410  -28.1860  -22.1310 H    1230  WAT1230     0.2052
   3687  H2        20.8050  -29.6830  -22.3470 H    1230  WAT1230     0.2052
   3688  O         24.3000  -28.3930  -19.8340 O.3  1231  WAT1231    -0.4105
   3689  H1        24.0000  -28.2480  -20.7320 H    1231  WAT1231     0.2052
   3690  H2        25.0720  -28.9530  -19.9270 H    1231  WAT1231     0.2052
   3691  O         29.6430  -23.5960  -21.8390 O.3  1232  WAT1232    -0.4105
   3692  H1        29.6580  -24.5280  -22.0570 H    1232  WAT1232     0.2052
   3693  H2        28.9360  -23.5100  -21.2000 H    1232  WAT1232     0.2052
   3694  O         29.0770  -21.9550  -24.7450 O.3  1233  WAT1233    -0.4105
   3695  H1        29.7210  -21.7490  -24.0670 H    1233  WAT1233     0.2052
   3696  H2        29.4400  -22.7160  -25.1980 H    1233  WAT1233     0.2052
   3697  O         19.9610  -21.3740  -21.0540 O.3  1234  WAT1234    -0.4105
   3698  H1        20.0700  -22.3150  -21.1950 H    1234  WAT1234     0.2052
   3699  H2        19.3090  -21.1090  -21.7030 H    1234  WAT1234     0.2052
   3700  O         27.9520  -23.1030  -19.6550 O.3  1235  WAT1235    -0.4105
   3701  H1        27.6320  -23.8220  -19.1100 H    1235  WAT1235     0.2052
   3702  H2        27.2780  -22.4270  -19.5810 H    1235  WAT1235     0.2052
   3703  O         23.1010  -19.4920  -28.4310 O.3  1236  WAT1236    -0.4105
   3704  H1        23.8370  -20.0410  -28.1600 H    1236  WAT1236     0.2052
   3705  H2        23.4850  -18.6270  -28.5700 H    1236  WAT1236     0.2052
   3706  O         22.1070  -20.3070  -19.2430 O.3  1237  WAT1237    -0.4105
   3707  H1        22.9080  -19.9860  -18.8290 H    1237  WAT1237     0.2052
   3708  H2        21.5920  -20.6680  -18.5210 H    1237  WAT1237     0.2052
   3709  O         19.8270  -27.8200  -20.2990 O.3  1238  WAT1238    -0.4105
   3710  H1        20.3310  -28.3990  -19.7270 H    1238  WAT1238     0.2052
   3711  H2        19.0880  -27.5360  -19.7610 H    1238  WAT1238     0.2052
   3712  O         26.8810  -26.4130  -20.7650 O.3  1239  WAT1239    -0.4105
   3713  H1        26.1150  -25.8450  -20.8500 H    1239  WAT1239     0.2052
   3714  H2        27.0620  -26.7050  -21.6590 H    1239  WAT1239     0.2052
   3715  O         21.8590  -29.6770  -19.4040 O.3  1240  WAT1240    -0.4105
   3716  H1        21.9000  -29.9760  -18.4950 H    1240  WAT1240     0.2052
   3717  H2        22.7140  -29.2760  -19.5630 H    1240  WAT1240     0.2052
   3718  O         27.4590  -26.6790  -23.7030 O.3  1241  WAT1241    -0.4105
   3719  H1        27.8780  -25.8360  -23.8750 H    1241  WAT1241     0.2052
   3720  H2        26.5400  -26.5420  -23.9320 H    1241  WAT1241     0.2052
   3721  O         25.3100  -20.3740  -22.5870 O.3  1242  WAT1242    -0.4105
   3722  H1        24.7720  -19.6490  -22.9060 H    1242  WAT1242     0.2052
   3723  H2        25.5630  -20.8510  -23.3770 H    1242  WAT1242     0.2052
   3724  O         28.1660  -19.1390  -22.3280 O.3  1243  WAT1243    -0.4105
   3725  H1        28.0920  -18.2350  -22.0210 H    1243  WAT1243     0.2052
   3726  H2        27.2640  -19.4570  -22.3560 H    1243  WAT1243     0.2052
   3727  O         19.5690  -21.8110  -29.0250 O.3  1244  WAT1244    -0.4105
   3728  H1        19.8990  -22.6790  -29.2570 H    1244  WAT1244     0.2052
   3729  H2        19.9980  -21.6050  -28.1940 H    1244  WAT1244     0.2052
   3730  O         20.0580  -20.9440  -26.2870 O.3  1245  WAT1245    -0.4105
   3731  H1        19.6210  -20.7640  -25.4540 H    1245  WAT1245     0.2052
   3732  H2        20.6260  -20.1870  -26.4290 H    1245  WAT1245     0.2052
   3733  O         20.9280  -28.0470  -25.3880 O.3  1246  WAT1246    -0.4105
   3734  H1        21.2950  -28.1340  -24.5080 H    1246  WAT1246     0.2052
   3735  H2        20.3590  -28.8100  -25.4870 H    1246  WAT1246     0.2052
   3736  O         22.3430  -23.5330  -20.2260 O.3  1247  WAT1247    -0.4105
   3737  H1        22.3000  -23.9040  -19.3440 H    1247  WAT1247     0.2052
   3738  H2        22.4740  -22.5960  -20.0850 H    1247  WAT1247     0.2052
   3739  O         26.0440  -21.9780  -24.6250 O.3  1248  WAT1248    -0.4105
   3740  H1        25.8030  -21.7100  -25.5120 H    1248  WAT1248     0.2052
   3741  H2        26.9840  -21.8070  -24.5690 H    1248  WAT1248     0.2052
   3742  O         22.1820  -20.5870  -23.1060 O.3  1249  WAT1249    -0.4105
   3743  H1        21.5880  -20.7190  -22.3670 H    1249  WAT1249     0.2052
   3744  H2        22.1740  -21.4230  -23.5720 H    1249  WAT1249     0.2052
   3745  O         21.8130  -23.2210  -24.1550 O.3  1250  WAT1250    -0.4105
   3746  H1        21.0860  -23.8410  -24.2220 H    1250  WAT1250     0.2052
   3747  H2        21.8740  -22.8270  -25.0250 H    1250  WAT1250     0.2052
   3748  O         25.4180  -21.0070  -27.3700 O.3  1251  WAT1251    -0.4105
   3749  H1        25.9340  -21.6180  -27.8950 H    1251  WAT1251     0.2052
   3750  H2        26.0670  -20.5040  -26.8790 H    1251  WAT1251     0.2052
   3751  O         28.1570  -20.1160  -26.5430 O.3  1252  WAT1252    -0.4105
   3752  H1        28.4450  -20.3710  -27.4200 H    1252  WAT1252     0.2052
   3753  H2        28.6690  -20.6680  -25.9530 H    1252  WAT1252     0.2052
   3754  O         28.2240  -19.1940  -19.1760 O.3  1253  WAT1253    -0.4105
   3755  H1        29.1510  -19.4300  -19.1330 H    1253  WAT1253     0.2052
   3756  H2        28.2090  -18.3670  -19.6580 H    1253  WAT1253     0.2052
   3757  O         12.1440   27.2280   26.6270 O.3  1254  WAT1254    -0.4105
   3758  H1        12.0630   26.3130   26.3560 H    1254  WAT1254     0.2052
   3759  H2        11.7300   27.7240   25.9210 H    1254  WAT1254     0.2052
   3760  O         10.2750   29.0060   28.5080 O.3  1255  WAT1255    -0.4105
   3761  H1         9.5000   28.5260   28.7980 H    1255  WAT1255     0.2052
   3762  H2        10.9270   28.3260   28.3330 H    1255  WAT1255     0.2052
   3763  O          2.7010   24.2780   23.1700 O.3  1256  WAT1256    -0.4105
   3764  H1         1.8130   24.6190   23.0680 H    1256  WAT1256     0.2052
   3765  H2         2.9850   24.0780   22.2780 H    1256  WAT1256     0.2052
   3766  O          0.6650   26.8780   29.0540 O.3  1257  WAT1257    -0.4105
   3767  H1         1.2360   26.1110   29.0540 H    1257  WAT1257     0.2052
   3768  H2         0.6650   27.1770   28.1440 H    1257  WAT1257     0.2052
   3769  O         10.7470   24.4880   28.7420 O.3  1258  WAT1258    -0.4105
   3770  H1        11.1230   23.6150   28.6290 H    1258  WAT1258     0.2052
   3771  H2        10.6490   24.8240   27.8510 H    1258  WAT1258     0.2052
   3772  O          4.8770   22.8610   24.2030 O.3  1259  WAT1259    -0.4105
   3773  H1         4.9840   23.7610   24.5100 H    1259  WAT1259     0.2052
   3774  H2         3.9670   22.8130   23.9130 H    1259  WAT1259     0.2052
   3775  O         14.5290   21.9830   25.6740 O.3  1260  WAT1260    -0.4105
   3776  H1        15.3500   21.4930   25.7170 H    1260  WAT1260     0.2052
   3777  H2        14.5630   22.5730   26.4280 H    1260  WAT1260     0.2052
   3778  O          2.5260   24.7830   29.4490 O.3  1261  WAT1261    -0.4105
   3779  H1         3.2070   25.0470   30.0670 H    1261  WAT1261     0.2052
   3780  H2         2.2110   23.9430   29.7820 H    1261  WAT1261     0.2052
   3781  O          6.7180   25.8300   28.5360 O.3  1262  WAT1262    -0.4105
   3782  H1         7.2260   26.3280   29.1760 H    1262  WAT1262     0.2052
   3783  H2         7.2500   25.0530   28.3600 H    1262  WAT1262     0.2052
   3784  O         14.7650   23.9230   28.4470 O.3  1263  WAT1263    -0.4105
   3785  H1        14.0610   24.2120   29.0280 H    1263  WAT1263     0.2052
   3786  H2        15.1270   24.7330   28.0870 H    1263  WAT1263     0.2052
   3787  O         17.8340   23.3690   28.8380 O.3  1264  WAT1264    -0.4105
   3788  H1        16.8870   23.4030   28.9700 H    1264  WAT1264     0.2052
   3789  H2        18.1590   24.1830   29.2230 H    1264  WAT1264     0.2052
   3790  O          8.3660   19.6690   27.1340 O.3  1265  WAT1265    -0.4105
   3791  H1         8.6740   19.1130   26.4170 H    1265  WAT1265     0.2052
   3792  H2         7.4360   19.8030   26.9510 H    1265  WAT1265     0.2052
   3793  O         10.7540   27.7330   23.8700 O.3  1266  WAT1266    -0.4105
   3794  H1         9.8270   27.6670   24.0990 H    1266  WAT1266     0.2052
   3795  H2        10.9070   28.6710   23.7550 H    1266  WAT1266     0.2052
   3796  O         10.7410   24.0050   20.8660 O.3  1267  WAT1267    -0.4105
   3797  H1         9.8010   24.1670   20.9520 H    1267  WAT1267     0.2052
   3798  H2        11.0590   24.7240   20.3200 H    1267  WAT1267     0.2052
   3799  O         14.7840   29.2960   24.3730 O.3  1268  WAT1268    -0.4105
   3800  H1        14.1650   28.9570   23.7260 H    1268  WAT1268     0.2052
   3801  H2        14.7660   28.6510   25.0810 H    1268  WAT1268     0.2052
   3802  O          6.3600   28.2600   26.6520 O.3  1269  WAT1269    -0.4105
   3803  H1         5.9560   27.5480   26.1560 H    1269  WAT1269     0.2052
   3804  H2         6.4460   27.9150   27.5410 H    1269  WAT1269     0.2052
   3805  O         12.9600   28.5340   21.3810 O.3  1270  WAT1270    -0.4105
   3806  H1        13.4000   27.6960   21.2340 H    1270  WAT1270     0.2052
   3807  H2        13.6730   29.1670   21.4670 H    1270  WAT1270     0.2052
   3808  O         16.5420   19.7880   19.6950 O.3  1271  WAT1271    -0.4105
   3809  H1        16.2290   19.8810   20.5950 H    1271  WAT1271     0.2052
   3810  H2        17.3030   20.3670   19.6440 H    1271  WAT1271     0.2052
   3811  O          3.0600   27.1540   24.1520 O.3  1272  WAT1272    -0.4105
   3812  H1         2.9400   27.8810   23.5410 H    1272  WAT1272     0.2052
   3813  H2         2.7500   26.3850   23.6750 H    1272  WAT1272     0.2052
   3814  O          5.5270   20.4980   27.5350 O.3  1273  WAT1273    -0.4105
   3815  H1         5.0830   21.2790   27.2030 H    1273  WAT1273     0.2052
   3816  H2         6.0850   20.8210   28.2420 H    1273  WAT1273     0.2052
   3817  O          8.6430   20.1190   22.4150 O.3  1274  WAT1274    -0.4105
   3818  H1         8.0180   20.1150   23.1410 H    1274  WAT1274     0.2052
   3819  H2         8.5560   19.2520   22.0190 H    1274  WAT1274     0.2052
   3820  O          7.5640   21.0430   29.3940 O.3  1275  WAT1275    -0.4105
   3821  H1         7.8620   21.9490   29.3130 H    1275  WAT1275     0.2052
   3822  H2         8.1130   20.5550   28.7800 H    1275  WAT1275     0.2052
   3823  O          5.3180   25.6210   25.2630 O.3  1276  WAT1276    -0.4105
   3824  H1         5.0920   25.4050   26.1680 H    1276  WAT1276     0.2052
   3825  H2         4.5370   26.0540   24.9170 H    1276  WAT1276     0.2052
   3826  O         12.5480   25.6280   23.8620 O.3  1277  WAT1277    -0.4105
   3827  H1        11.9490   26.3510   23.6780 H    1277  WAT1277     0.2052
   3828  H2        13.0960   25.5650   23.0800 H    1277  WAT1277     0.2052
   3829  O         11.1540   24.2640   25.8920 O.3  1278  WAT1278    -0.4105
   3830  H1        11.5470   24.5810   25.0790 H    1278  WAT1278     0.2052
   3831  H2        11.5160   23.3850   26.0070 H    1278  WAT1278     0.2052
   3832  O          0.1910   20.8540   28.1150 O.3  1279  WAT1279    -0.4105
   3833  H1        -0.0980   21.4240   28.8280 H    1279  WAT1279     0.2052
   3834  H2         0.9350   20.3750   28.4780 H    1279  WAT1279     0.2052
   3835  O          0.3780   24.7960   19.3260 O.3  1280  WAT1280    -0.4105
   3836  H1         0.2950   25.7390   19.4670 H    1280  WAT1280     0.2052
   3837  H2         0.0260   24.6540   18.4470 H    1280  WAT1280     0.2052
   3838  O          8.1780   23.5300   28.3930 O.3  1281  WAT1281    -0.4105
   3839  H1         8.1810   23.0890   27.5430 H    1281  WAT1281     0.2052
   3840  H2         9.0730   23.8520   28.5000 H    1281  WAT1281     0.2052
   3841  O          4.0280   23.4130   27.3520 O.3  1282  WAT1282    -0.4105
   3842  H1         3.6880   23.8900   28.1090 H    1282  WAT1282     0.2052
   3843  H2         3.2660   22.9590   26.9920 H    1282  WAT1282     0.2052
   3844  O          8.2400   24.5310   21.3830 O.3  1283  WAT1283    -0.4105
   3845  H1         8.3610   24.4900   22.3320 H    1283  WAT1283     0.2052
   3846  H2         7.8540   25.3940   21.2280 H    1283  WAT1283     0.2052
   3847  O          7.2520   26.8410   20.7820 O.3  1284  WAT1284    -0.4105
   3848  H1         6.6830   26.3930   20.1550 H    1284  WAT1284     0.2052
   3849  H2         7.9610   27.2010   20.2480 H    1284  WAT1284     0.2052
   3850  O          1.3420   22.3350   26.2680 O.3  1285  WAT1285    -0.4105
   3851  H1         1.0570   21.9700   27.1060 H    1285  WAT1285     0.2052
   3852  H2         1.2800   21.6030   25.6550 H    1285  WAT1285     0.2052
   3853  O         11.0160   21.2270   22.9900 O.3  1286  WAT1286    -0.4105
   3854  H1        10.2030   20.7290   22.9140 H    1286  WAT1286     0.2052
   3855  H2        10.8230   22.0670   22.5730 H    1286  WAT1286     0.2052
   3856  O         13.7310   25.5990   21.2860 O.3  1287  WAT1287    -0.4105
   3857  H1        14.6190   25.9110   21.1110 H    1287  WAT1287     0.2052
   3858  H2        13.7020   24.7270   20.8940 H    1287  WAT1287     0.2052
   3859  O         16.0030   26.9110   20.7540 O.3  1288  WAT1288    -0.4105
   3860  H1        15.9190   27.3420   19.9040 H    1288  WAT1288     0.2052
   3861  H2        16.7220   27.3700   21.1870 H    1288  WAT1288     0.2052
   3862  O          0.8360   27.4700   20.2280 O.3  1289  WAT1289    -0.4105
   3863  H1         1.7050   27.7530   20.5120 H    1289  WAT1289     0.2052
   3864  H2         0.3450   28.2840   20.1130 H    1289  WAT1289     0.2052
   3865  O          7.9990   28.8580   24.3490 O.3  1290  WAT1290    -0.4105
   3866  H1         8.4550   29.6680   24.5750 H    1290  WAT1290     0.2052
   3867  H2         7.6480   28.5400   25.1810 H    1290  WAT1290     0.2052
   3868  O          3.9000   19.2020   24.8210 O.3  1291  WAT1291    -0.4105
   3869  H1         3.7720   19.1930   25.7700 H    1291  WAT1291     0.2052
   3870  H2         3.0760   19.5400   24.4700 H    1291  WAT1291     0.2052
   3871  O         15.7600   22.4090   22.8410 O.3  1292  WAT1292    -0.4105
   3872  H1        15.1310   22.5130   22.1270 H    1292  WAT1292     0.2052
   3873  H2        15.2650   22.6280   23.6300 H    1292  WAT1292     0.2052
   3874  O          7.7280   24.6870   24.2570 O.3  1293  WAT1293    -0.4105
   3875  H1         7.0200   25.1560   24.6980 H    1293  WAT1293     0.2052
   3876  H2         8.0130   24.0290   24.8910 H    1293  WAT1293     0.2052
   3877  O         11.7600   21.4120   25.6960 O.3  1294  WAT1294    -0.4105
   3878  H1        11.6360   21.4310   24.7470 H    1294  WAT1294     0.2052
   3879  H2        12.7080   21.4600   25.8160 H    1294  WAT1294     0.2052
   3880  O          5.9320   22.9960   21.6320 O.3  1295  WAT1295    -0.4105
   3881  H1         6.7810   23.4330   21.5660 H    1295  WAT1295     0.2052
   3882  H2         5.5650   23.3080   22.4590 H    1295  WAT1295     0.2052
   3883  O         14.8530   27.5670   26.5450 O.3  1296  WAT1296    -0.4105
   3884  H1        13.9120   27.5820   26.7200 H    1296  WAT1296     0.2052
   3885  H2        15.1670   26.7810   26.9910 H    1296  WAT1296     0.2052
   3886  O          4.8310   29.2490   20.1050 O.3  1297  WAT1297    -0.4105
   3887  H1         5.5970   29.1370   20.6680 H    1297  WAT1297     0.2052
   3888  H2         4.9080   28.5530   19.4530 H    1297  WAT1297     0.2052
   3889  O          3.5250   26.6810   20.7890 O.3  1298  WAT1298    -0.4105
   3890  H1         3.6060   25.7340   20.9000 H    1298  WAT1298     0.2052
   3891  H2         4.4170   27.0120   20.8950 H    1298  WAT1298     0.2052
   3892  O          6.8630   29.2450   22.0790 O.3  1299  WAT1299    -0.4105
   3893  H1         7.2840   29.0790   22.9230 H    1299  WAT1299     0.2052
   3894  H2         6.9880   28.4350   21.5850 H    1299  WAT1299     0.2052
   3895  O          9.3750   28.2690   19.3270 O.3  1300  WAT1300    -0.4105
   3896  H1         9.8960   27.5540   18.9610 H    1300  WAT1300     0.2052
   3897  H2        10.0220   28.9080   19.6270 H    1300  WAT1300     0.2052
   3898  O          5.7590   25.3190   19.0250 O.3  1301  WAT1301    -0.4105
   3899  H1         5.5570   24.4550   19.3870 H    1301  WAT1301     0.2052
   3900  H2         5.5880   25.2320   18.0870 H    1301  WAT1301     0.2052
   3901  O         13.2370   20.1300   21.5540 O.3  1302  WAT1302    -0.4105
   3902  H1        13.5180   19.2860   21.9100 H    1302  WAT1302     0.2052
   3903  H2        12.4640   20.3620   22.0680 H    1302  WAT1302     0.2052
   3904  O          4.5570   22.4190   19.0130 O.3  1303  WAT1303    -0.4105
   3905  H1         4.8590   22.4260   18.1050 H    1303  WAT1303     0.2052
   3906  H2         5.2960   22.0690   19.5100 H    1303  WAT1303     0.2052
   3907  O          7.7750   21.3620   19.9990 O.3  1304  WAT1304    -0.4105
   3908  H1         7.4270   20.6850   19.4190 H    1304  WAT1304     0.2052
   3909  H2         7.9770   20.9010   20.8130 H    1304  WAT1304     0.2052
   3910  O          1.1160   27.8910   26.3950 O.3  1305  WAT1305    -0.4105
   3911  H1         0.4610   27.6220   25.7510 H    1305  WAT1305     0.2052
   3912  H2         1.9540   27.7810   25.9450 H    1305  WAT1305     0.2052
   3913  O         14.0650   22.6850   20.6170 O.3  1306  WAT1306    -0.4105
   3914  H1        14.4830   22.4980   19.7770 H    1306  WAT1306     0.2052
   3915  H2        13.7580   21.8330   20.9270 H    1306  WAT1306     0.2052
   3916  O         17.5640   27.5980   24.3150 O.3  1307  WAT1307    -0.4105
   3917  H1        17.1880   26.8300   23.8830 H    1307  WAT1307     0.2052
   3918  H2        16.8340   27.9800   24.8020 H    1307  WAT1307     0.2052
   3919  O          0.3300   25.1010   22.3380 O.3  1308  WAT1308    -0.4105
   3920  H1        -0.5740   25.3640   22.1630 H    1308  WAT1308     0.2052
   3921  H2         0.8140   25.3720   21.5580 H    1308  WAT1308     0.2052
   3922  O         16.8390   25.8230   27.6150 O.3  1309  WAT1309    -0.4105
   3923  H1        17.3630   25.3300   26.9840 H    1309  WAT1309     0.2052
   3924  H2        17.4250   25.9580   28.3600 H    1309  WAT1309     0.2052
   3925  O          2.8720   24.1570   20.2470 O.3  1310  WAT1310    -0.4105
   3926  H1         3.5820   23.7360   19.7620 H    1310  WAT1310     0.2052
   3927  H2         2.1560   24.2250   19.6150 H    1310  WAT1310     0.2052
   3928  O          2.5200   20.2110   19.2870 O.3  1311  WAT1311    -0.4105
   3929  H1         3.2430   20.7520   19.6060 H    1311  WAT1311     0.2052
   3930  H2         2.7920   19.9380   18.4120 H    1311  WAT1311     0.2052
   3931  O         16.3290   25.0810   23.5550 O.3  1312  WAT1312    -0.4105
   3932  H1        16.8250   24.8480   24.3390 H    1312  WAT1312     0.2052
   3933  H2        16.1310   24.2420   23.1380 H    1312  WAT1312     0.2052
   3934  O          2.2090   19.4620   29.1900 O.3  1313  WAT1313    -0.4105
   3935  H1         2.8570   18.9120   28.7490 H    1313  WAT1313     0.2052
   3936  H2         2.6290   19.7160   30.0110 H    1313  WAT1313     0.2052
   3937  O         17.7580   23.7170   26.0880 O.3  1314  WAT1314    -0.4105
   3938  H1        17.6480   23.5620   27.0270 H    1314  WAT1314     0.2052
   3939  H2        18.5180   23.1890   25.8460 H    1314  WAT1314     0.2052
   3940  O         18.6470   21.5480   19.3290 O.3  1315  WAT1315    -0.4105
   3941  H1        19.5720   21.4160   19.1210 H    1315  WAT1315     0.2052
   3942  H2        18.6240   21.6270   20.2830 H    1315  WAT1315     0.2052
   3943  O         18.7210   22.3190   21.9550 O.3  1316  WAT1316    -0.4105
   3944  H1        17.9260   22.2530   22.4840 H    1316  WAT1316     0.2052
   3945  H2        18.9250   23.2540   21.9430 H    1316  WAT1316     0.2052
   3946  O         15.1530   20.6480   28.4040 O.3  1317  WAT1317    -0.4105
   3947  H1        15.5930   20.5930   27.5570 H    1317  WAT1317     0.2052
   3948  H2        14.8830   21.5640   28.4760 H    1317  WAT1317     0.2052
   3949  O         17.0160   20.2800   26.4150 O.3  1318  WAT1318    -0.4105
   3950  H1        16.9550   19.3360   26.2680 H    1318  WAT1318     0.2052
   3951  H2        17.7960   20.3880   26.9610 H    1318  WAT1318     0.2052
   3952  O          1.9440   20.2510   22.8810 O.3  1319  WAT1319    -0.4105
   3953  H1         2.7020   20.3640   22.3070 H    1319  WAT1319     0.2052
   3954  H2         1.4820   21.0880   22.8350 H    1319  WAT1319     0.2052
   3955  O          8.4860   22.3650   25.8710 O.3  1320  WAT1320    -0.4105
   3956  H1         7.6730   21.9900   25.5310 H    1320  WAT1320     0.2052
   3957  H2         8.9900   21.6090   26.1730 H    1320  WAT1320     0.2052
   3958  O         12.9880   19.0290   27.1090 O.3  1321  WAT1321    -0.4105
   3959  H1        13.5910   19.6010   27.5840 H    1321  WAT1321     0.2052
   3960  H2        12.2480   19.5930   26.8870 H    1321  WAT1321     0.2052
   3961  O         16.1320   19.4310   22.3840 O.3  1322  WAT1322    -0.4105
   3962  H1        16.3270   20.3290   22.6500 H    1322  WAT1322     0.2052
   3963  H2        15.3450   19.2000   22.8770 H    1322  WAT1322     0.2052
   3964  O          4.3170   20.7770   21.4210 O.3  1323  WAT1323    -0.4105
   3965  H1         4.8460   19.9900   21.2920 H    1323  WAT1323     0.2052
   3966  H2         4.9500   21.4560   21.6550 H    1323  WAT1323     0.2052
   3967  O          6.5110   20.5150   24.4760 O.3  1324  WAT1324    -0.4105
   3968  H1         5.8810   19.8130   24.6430 H    1324  WAT1324     0.2052
   3969  H2         5.9710   21.2750   24.2590 H    1324  WAT1324     0.2052
   3970  O         12.1440   27.2280    7.8520 O.3  1325  WAT1325    -0.4105
   3971  H1        12.0630   26.3130    7.5820 H    1325  WAT1325     0.2052
   3972  H2        11.7300   27.7240    7.1460 H    1325  WAT1325     0.2052
   3973  O         10.2750   29.0060    9.7330 O.3  1326  WAT1326    -0.4105
   3974  H1         9.5000   28.5260   10.0230 H    1326  WAT1326     0.2052
   3975  H2        10.9270   28.3260    9.5590 H    1326  WAT1326     0.2052
   3976  O          4.2920   29.3180   10.6110 O.3  1327  WAT1327    -0.4105
   3977  H1         3.4610   29.0620   11.0110 H    1327  WAT1327     0.2052
   3978  H2         4.9000   29.3890   11.3470 H    1327  WAT1327     0.2052
   3979  O          2.7010   24.2780    4.3950 O.3  1328  WAT1328    -0.4105
   3980  H1         1.8130   24.6190    4.2930 H    1328  WAT1328     0.2052
   3981  H2         2.9850   24.0780    3.5030 H    1328  WAT1328     0.2052
   3982  O          0.6650   26.8780   10.2790 O.3  1329  WAT1329    -0.4105
   3983  H1         1.2360   26.1110   10.2800 H    1329  WAT1329     0.2052
   3984  H2         0.6650   27.1770    9.3700 H    1329  WAT1329     0.2052
   3985  O          1.9070   22.2870   12.0660 O.3  1330  WAT1330    -0.4105
   3986  H1         1.7270   21.3890   12.3460 H    1330  WAT1330     0.2052
   3987  H2         1.5050   22.8340   12.7410 H    1330  WAT1330     0.2052
   3988  O         10.7470   24.4880    9.9670 O.3  1331  WAT1331    -0.4105
   3989  H1        11.1230   23.6150    9.8550 H    1331  WAT1331     0.2052
   3990  H2        10.6490   24.8240    9.0760 H    1331  WAT1331     0.2052
   3991  O          4.8770   22.8610    5.4290 O.3  1332  WAT1332    -0.4105
   3992  H1         4.9840   23.7610    5.7360 H    1332  WAT1332     0.2052
   3993  H2         3.9670   22.8130    5.1380 H    1332  WAT1332     0.2052
   3994  O         14.5290   21.9830    6.9000 O.3  1333  WAT1333    -0.4105
   3995  H1        15.3500   21.4930    6.9430 H    1333  WAT1333     0.2052
   3996  H2        14.5630   22.5730    7.6530 H    1333  WAT1333     0.2052
   3997  O          2.5260   24.7830   10.6740 O.3  1334  WAT1334    -0.4105
   3998  H1         3.2070   25.0470   11.2930 H    1334  WAT1334     0.2052
   3999  H2         2.2110   23.9430   11.0080 H    1334  WAT1334     0.2052
   4000  O          6.7180   25.8300    9.7620 O.3  1335  WAT1335    -0.4105
   4001  H1         7.2260   26.3280   10.4020 H    1335  WAT1335     0.2052
   4002  H2         7.2500   25.0530    9.5850 H    1335  WAT1335     0.2052
   4003  O         18.8190   24.0000   13.4640 O.3  1336  WAT1336    -0.4105
   4004  H1        18.1140   24.3880   12.9460 H    1336  WAT1336     0.2052
   4005  H2        19.0850   24.6950   14.0670 H    1336  WAT1336     0.2052
   4006  O          5.0020   20.4690   14.0280 O.3  1337  WAT1337    -0.4105
   4007  H1         5.0040   20.9870   13.2220 H    1337  WAT1337     0.2052
   4008  H2         4.1720   19.9920   14.0050 H    1337  WAT1337     0.2052
   4009  O         14.7650   23.9230    9.6730 O.3  1338  WAT1338    -0.4105
   4010  H1        14.0610   24.2120   10.2530 H    1338  WAT1338     0.2052
   4011  H2        15.1270   24.7330    9.3130 H    1338  WAT1338     0.2052
   4012  O          4.6830   22.1800   12.0350 O.3  1339  WAT1339    -0.4105
   4013  H1         5.0250   23.0250   11.7400 H    1339  WAT1339     0.2052
   4014  H2         3.7450   22.3290   12.1510 H    1339  WAT1339     0.2052
   4015  O         17.8340   23.3690   10.0640 O.3  1340  WAT1340    -0.4105
   4016  H1        16.8870   23.4030   10.1950 H    1340  WAT1340     0.2052
   4017  H2        18.1590   24.1830   10.4490 H    1340  WAT1340     0.2052
   4018  O          8.3660   19.6690    8.3590 O.3  1341  WAT1341    -0.4105
   4019  H1         8.6740   19.1130    7.6430 H    1341  WAT1341     0.2052
   4020  H2         7.4360   19.8030    8.1770 H    1341  WAT1341     0.2052
   4021  O         10.7540   27.7330    5.0950 O.3  1342  WAT1342    -0.4105
   4022  H1         9.8270   27.6670    5.3240 H    1342  WAT1342     0.2052
   4023  H2        10.9070   28.6710    4.9810 H    1342  WAT1342     0.2052
   4024  O         10.7410   24.0050    2.0920 O.3  1343  WAT1343    -0.4105
   4025  H1         9.8010   24.1670    2.1770 H    1343  WAT1343     0.2052
   4026  H2        11.0590   24.7240    1.5460 H    1343  WAT1343     0.2052
   4027  O         17.2620   28.6870   12.0700 O.3  1344  WAT1344    -0.4105
   4028  H1        16.4340   28.7560   11.5950 H    1344  WAT1344     0.2052
   4029  H2        17.8570   29.2720   11.6020 H    1344  WAT1344     0.2052
   4030  O         14.7840   29.2960    5.5990 O.3  1345  WAT1345    -0.4105
   4031  H1        14.1650   28.9570    4.9520 H    1345  WAT1345     0.2052
   4032  H2        14.7660   28.6510    6.3070 H    1345  WAT1345     0.2052
   4033  O         14.2270   25.4740   13.0160 O.3  1346  WAT1346    -0.4105
   4034  H1        13.8140   26.2990   13.2700 H    1346  WAT1346     0.2052
   4035  H2        13.4940   24.8880   12.8230 H    1346  WAT1346     0.2052
   4036  O          6.3600   28.2600    7.8770 O.3  1347  WAT1347    -0.4105
   4037  H1         5.9560   27.5480    7.3820 H    1347  WAT1347     0.2052
   4038  H2         6.4460   27.9150    8.7660 H    1347  WAT1347     0.2052
   4039  O          5.0730   25.0340   11.6570 O.3  1348  WAT1348    -0.4105
   4040  H1         5.6240   25.1440   10.8830 H    1348  WAT1348     0.2052
   4041  H2         5.5870   25.4080   12.3730 H    1348  WAT1348     0.2052
   4042  O         12.9600   28.5340    2.6060 O.3  1349  WAT1349    -0.4105
   4043  H1        13.4000   27.6960    2.4600 H    1349  WAT1349     0.2052
   4044  H2        13.6730   29.1670    2.6930 H    1349  WAT1349     0.2052
   4045  O          4.7470   28.5560   15.2680 O.3  1350  WAT1350    -0.4105
   4046  H1         4.6080   29.4280   15.6370 H    1350  WAT1350     0.2052
   4047  H2         3.8650   28.2130   15.1230 H    1350  WAT1350     0.2052
   4048  O         16.5420   19.7880    0.9200 O.3  1351  WAT1351    -0.4105
   4049  H1        16.2290   19.8810    1.8200 H    1351  WAT1351     0.2052
   4050  H2        17.3030   20.3670    0.8700 H    1351  WAT1351     0.2052
   4051  O          3.0600   27.1540    5.3780 O.3  1352  WAT1352    -0.4105
   4052  H1         2.9400   27.8810    4.7660 H    1352  WAT1352     0.2052
   4053  H2         2.7500   26.3850    4.9010 H    1352  WAT1352     0.2052
   4054  O         17.7520   24.5260   16.8980 O.3  1353  WAT1353    -0.4105
   4055  H1        17.1370   25.0340   16.3690 H    1353  WAT1353     0.2052
   4056  H2        17.4320   23.6250   16.8400 H    1353  WAT1353     0.2052
   4057  O          5.5270   20.4980    8.7600 O.3  1354  WAT1354    -0.4105
   4058  H1         5.0830   21.2790    8.4290 H    1354  WAT1354     0.2052
   4059  H2         6.0850   20.8210    9.4680 H    1354  WAT1354     0.2052
   4060  O          9.8140   23.3650   14.3640 O.3  1355  WAT1355    -0.4105
   4061  H1         9.3520   23.5730   15.1760 H    1355  WAT1355     0.2052
   4062  H2         9.4110   22.5510   14.0610 H    1355  WAT1355     0.2052
   4063  O         14.8140   24.5860   15.4940 O.3  1356  WAT1356    -0.4105
   4064  H1        13.9630   24.2860   15.8150 H    1356  WAT1356     0.2052
   4065  H2        14.6540   24.8300   14.5820 H    1356  WAT1356     0.2052
   4066  O         11.9090   26.0860   17.5930 O.3  1357  WAT1357    -0.4105
   4067  H1        12.2340   25.2520   17.2540 H    1357  WAT1357     0.2052
   4068  H2        12.6970   26.6090   17.7410 H    1357  WAT1357     0.2052
   4069  O          8.6430   20.1190    3.6410 O.3  1358  WAT1358    -0.4105
   4070  H1         8.0180   20.1150    4.3660 H    1358  WAT1358     0.2052
   4071  H2         8.5560   19.2520    3.2450 H    1358  WAT1358     0.2052
   4072  O          7.5640   21.0430   10.6190 O.3  1359  WAT1359    -0.4105
   4073  H1         7.8620   21.9490   10.5390 H    1359  WAT1359     0.2052
   4074  H2         8.1130   20.5550   10.0050 H    1359  WAT1359     0.2052
   4075  O          5.3180   25.6210    6.4890 O.3  1360  WAT1360    -0.4105
   4076  H1         5.0920   25.4050    7.3930 H    1360  WAT1360     0.2052
   4077  H2         4.5370   26.0540    6.1430 H    1360  WAT1360     0.2052
   4078  O         12.5480   25.6280    5.0880 O.3  1361  WAT1361    -0.4105
   4079  H1        11.9490   26.3510    4.9040 H    1361  WAT1361     0.2052
   4080  H2        13.0960   25.5650    4.3050 H    1361  WAT1361     0.2052
   4081  O          7.7580   26.5200   17.1550 O.3  1362  WAT1362    -0.4105
   4082  H1         7.6620   25.5790   17.0050 H    1362  WAT1362     0.2052
   4083  H2         8.6010   26.7410   16.7590 H    1362  WAT1362     0.2052
   4084  O         11.1540   24.2640    7.1180 O.3  1363  WAT1363    -0.4105
   4085  H1        11.5470   24.5810    6.3050 H    1363  WAT1363     0.2052
   4086  H2        11.5160   23.3850    7.2320 H    1363  WAT1363     0.2052
   4087  O          2.8890   22.9310   15.3080 O.3  1364  WAT1364    -0.4105
   4088  H1         2.4950   23.7790   15.5150 H    1364  WAT1364     0.2052
   4089  H2         2.2010   22.2940   15.4990 H    1364  WAT1364     0.2052
   4090  O          9.4640   23.0150   18.3780 O.3  1365  WAT1365    -0.4105
   4091  H1         8.7730   22.8220   19.0120 H    1365  WAT1365     0.2052
   4092  H2        10.2070   23.2980   18.9100 H    1365  WAT1365     0.2052
   4093  O          0.1910   20.8540    9.3410 O.3  1366  WAT1366    -0.4105
   4094  H1        -0.0980   21.4240   10.0530 H    1366  WAT1366     0.2052
   4095  H2         0.9350   20.3750    9.7040 H    1366  WAT1366     0.2052
   4096  O          0.3780   24.7960    0.5510 O.3  1367  WAT1367    -0.4105
   4097  H1         0.2950   25.7390    0.6930 H    1367  WAT1367     0.2052
   4098  H2         0.0260   24.6540   -0.3280 H    1367  WAT1367     0.2052
   4099  O         11.7400   26.8550   11.2130 O.3  1368  WAT1368    -0.4105
   4100  H1        11.0080   27.3630   11.5620 H    1368  WAT1368     0.2052
   4101  H2        11.3420   26.0380   10.9120 H    1368  WAT1368     0.2052
   4102  O          8.1780   23.5300    9.6180 O.3  1369  WAT1369    -0.4105
   4103  H1         8.1810   23.0890    8.7690 H    1369  WAT1369     0.2052
   4104  H2         9.0730   23.8520    9.7250 H    1369  WAT1369     0.2052
   4105  O          4.0280   23.4130    8.5780 O.3  1370  WAT1370    -0.4105
   4106  H1         3.6880   23.8900    9.3340 H    1370  WAT1370     0.2052
   4107  H2         3.2660   22.9590    8.2180 H    1370  WAT1370     0.2052
   4108  O          8.2400   24.5310    2.6090 O.3  1371  WAT1371    -0.4105
   4109  H1         8.3610   24.4900    3.5580 H    1371  WAT1371     0.2052
   4110  H2         7.8540   25.3940    2.4540 H    1371  WAT1371     0.2052
   4111  O         12.2020   22.3080   10.6250 O.3  1372  WAT1372    -0.4105
   4112  H1        12.2200   22.7590   11.4690 H    1372  WAT1372     0.2052
   4113  H2        11.9540   21.4090   10.8390 H    1372  WAT1372     0.2052
   4114  O          7.2520   26.8410    2.0070 O.3  1373  WAT1373    -0.4105
   4115  H1         6.6830   26.3930    1.3810 H    1373  WAT1373     0.2052
   4116  H2         7.9610   27.2010    1.4740 H    1373  WAT1373     0.2052
   4117  O         15.6300   19.7210   16.4640 O.3  1374  WAT1374    -0.4105
   4118  H1        15.9540   18.9900   16.9900 H    1374  WAT1374     0.2052
   4119  H2        15.6650   19.4030   15.5620 H    1374  WAT1374     0.2052
   4120  O          8.4780   27.5900   11.3650 O.3  1375  WAT1375    -0.4105
   4121  H1         8.8450   27.1160   12.1110 H    1375  WAT1375     0.2052
   4122  H2         8.2890   28.4640   11.7060 H    1375  WAT1375     0.2052
   4123  O          1.3420   22.3350    7.4940 O.3  1376  WAT1376    -0.4105
   4124  H1         1.0570   21.9700    8.3320 H    1376  WAT1376     0.2052
   4125  H2         1.2800   21.6030    6.8800 H    1376  WAT1376     0.2052
   4126  O          6.2680   26.6310   13.6830 O.3  1377  WAT1377    -0.4105
   4127  H1         5.9640   27.5100   13.9080 H    1377  WAT1377     0.2052
   4128  H2         7.2230   26.6910   13.7190 H    1377  WAT1377     0.2052
   4129  O         11.0160   21.2270    4.2150 O.3  1378  WAT1378    -0.4105
   4130  H1        10.2030   20.7290    4.1400 H    1378  WAT1378     0.2052
   4131  H2        10.8230   22.0670    3.7990 H    1378  WAT1378     0.2052
   4132  O         13.7310   25.5990    2.5120 O.3  1379  WAT1379    -0.4105
   4133  H1        14.6190   25.9110    2.3370 H    1379  WAT1379     0.2052
   4134  H2        13.7020   24.7270    2.1200 H    1379  WAT1379     0.2052
   4135  O          2.3250   27.4710   14.8300 O.3  1380  WAT1380    -0.4105
   4136  H1         1.9660   28.1370   15.4180 H    1380  WAT1380     0.2052
   4137  H2         2.0300   26.6400   15.2020 H    1380  WAT1380     0.2052
   4138  O          5.5260   27.9300   17.7140 O.3  1381  WAT1381    -0.4105
   4139  H1         5.2260   28.0750   16.8170 H    1381  WAT1381     0.2052
   4140  H2         6.2970   27.3700   17.6220 H    1381  WAT1381     0.2052
   4141  O         16.0030   26.9110    1.9800 O.3  1382  WAT1382    -0.4105
   4142  H1        15.9190   27.3420    1.1290 H    1382  WAT1382     0.2052
   4143  H2        16.7220   27.3700    2.4120 H    1382  WAT1382     0.2052
   4144  O          0.8360   27.4700    1.4540 O.3  1383  WAT1383    -0.4105
   4145  H1         1.7050   27.7530    1.7370 H    1383  WAT1383     0.2052
   4146  H2         0.3450   28.2840    1.3390 H    1383  WAT1383     0.2052
   4147  O          7.9990   28.8580    5.5750 O.3  1384  WAT1384    -0.4105
   4148  H1         8.4550   29.6680    5.8010 H    1384  WAT1384     0.2052
   4149  H2         7.6480   28.5400    6.4060 H    1384  WAT1384     0.2052
   4150  O          3.9000   19.2020    6.0470 O.3  1385  WAT1385    -0.4105
   4151  H1         3.7720   19.1930    6.9950 H    1385  WAT1385     0.2052
   4152  H2         3.0760   19.5400    5.6960 H    1385  WAT1385     0.2052
   4153  O          0.9000   20.9610   15.5080 O.3  1386  WAT1386    -0.4105
   4154  H1         0.1850   21.1600   16.1130 H    1386  WAT1386     0.2052
   4155  H2         1.3190   20.1850   15.8790 H    1386  WAT1386     0.2052
   4156  O         12.3930   23.4530   13.2580 O.3  1387  WAT1387    -0.4105
   4157  H1        12.7620   22.6320   13.5860 H    1387  WAT1387     0.2052
   4158  H2        11.5330   23.5130   13.6730 H    1387  WAT1387     0.2052
   4159  O         15.7600   22.4090    4.0660 O.3  1388  WAT1388    -0.4105
   4160  H1        15.1310   22.5130    3.3520 H    1388  WAT1388     0.2052
   4161  H2        15.2650   22.6280    4.8560 H    1388  WAT1388     0.2052
   4162  O          7.7280   24.6870    5.4820 O.3  1389  WAT1389    -0.4105
   4163  H1         7.0200   25.1560    5.9240 H    1389  WAT1389     0.2052
   4164  H2         8.0130   24.0290    6.1170 H    1389  WAT1389     0.2052
   4165  O          9.3540   26.1070   13.4820 O.3  1390  WAT1390    -0.4105
   4166  H1         9.8520   26.5810   14.1470 H    1390  WAT1390     0.2052
   4167  H2         9.4960   25.1830   13.6890 H    1390  WAT1390     0.2052
   4168  O         11.7600   21.4120    6.9220 O.3  1391  WAT1391    -0.4105
   4169  H1        11.6360   21.4310    5.9730 H    1391  WAT1391     0.2052
   4170  H2        12.7080   21.4600    7.0420 H    1391  WAT1391     0.2052
   4171  O          5.9320   22.9960    2.8570 O.3  1392  WAT1392    -0.4105
   4172  H1         6.7810   23.4330    2.7910 H    1392  WAT1392     0.2052
   4173  H2         5.5650   23.3080    3.6850 H    1392  WAT1392     0.2052
   4174  O         16.5600   22.3240   14.3240 O.3  1393  WAT1393    -0.4105
   4175  H1        16.0580   23.0640   14.6640 H    1393  WAT1393     0.2052
   4176  H2        17.3760   22.7120   14.0080 H    1393  WAT1393     0.2052
   4177  O         14.8530   27.5670    7.7700 O.3  1394  WAT1394    -0.4105
   4178  H1        13.9120   27.5820    7.9450 H    1394  WAT1394     0.2052
   4179  H2        15.1670   26.7810    8.2170 H    1394  WAT1394     0.2052
   4180  O          4.8310   29.2490    1.3310 O.3  1395  WAT1395    -0.4105
   4181  H1         5.5970   29.1370    1.8930 H    1395  WAT1395     0.2052
   4182  H2         4.9080   28.5530    0.6790 H    1395  WAT1395     0.2052
   4183  O          3.5250   26.6810    2.0140 O.3  1396  WAT1396    -0.4105
   4184  H1         3.6060   25.7340    2.1260 H    1396  WAT1396     0.2052
   4185  H2         4.4170   27.0120    2.1200 H    1396  WAT1396     0.2052
   4186  O          1.0520   28.5030   17.2500 O.3  1397  WAT1397    -0.4105
   4187  H1         1.5560   27.9240   17.8210 H    1397  WAT1397     0.2052
   4188  H2         0.3130   28.7870   17.7870 H    1397  WAT1397     0.2052
   4189  O          3.0850   26.6460   18.1450 O.3  1398  WAT1398    -0.4105
   4190  H1         3.1250   26.3470   19.0530 H    1398  WAT1398     0.2052
   4191  H2         3.9390   27.0470   17.9860 H    1398  WAT1398     0.2052
   4192  O          6.8630   29.2450    3.3050 O.3  1399  WAT1399    -0.4105
   4193  H1         7.2840   29.0790    4.1480 H    1399  WAT1399     0.2052
   4194  H2         6.9880   28.4350    2.8110 H    1399  WAT1399     0.2052
   4195  O          5.0250   25.2250   16.1120 O.3  1400  WAT1400    -0.4105
   4196  H1         4.4950   24.7340   15.4850 H    1400  WAT1400     0.2052
   4197  H2         5.6940   25.6530   15.5780 H    1400  WAT1400     0.2052
   4198  O          9.3750   28.2690    0.5530 O.3  1401  WAT1401    -0.4105
   4199  H1         9.8960   27.5540    0.1870 H    1401  WAT1401     0.2052
   4200  H2        10.0220   28.9080    0.8530 H    1401  WAT1401     0.2052
   4201  O         13.9230   29.6920   15.8760 O.3  1402  WAT1402    -0.4105
   4202  H1        14.3370   29.8470   16.7250 H    1402  WAT1402     0.2052
   4203  H2        12.9880   29.8180   16.0390 H    1402  WAT1402     0.2052
   4204  O         14.3950   27.0320   17.8800 O.3  1403  WAT1403    -0.4105
   4205  H1        14.9770   26.2770   17.7920 H    1403  WAT1403     0.2052
   4206  H2        14.5720   27.5620   17.1030 H    1403  WAT1403     0.2052
   4207  O          5.5130   22.1910   16.1920 O.3  1404  WAT1404    -0.4105
   4208  H1         5.4180   21.5730   15.4670 H    1404  WAT1404     0.2052
   4209  H2         4.9320   22.9180   15.9650 H    1404  WAT1404     0.2052
   4210  O          8.2790   20.7490   13.2250 O.3  1405  WAT1405    -0.4105
   4211  H1         7.8300   20.7710   12.3790 H    1405  WAT1405     0.2052
   4212  H2         7.6450   20.3510   13.8220 H    1405  WAT1405     0.2052
   4213  O         11.0210   27.3760   15.2300 O.3  1406  WAT1406    -0.4105
   4214  H1        11.1410   26.7800   15.9690 H    1406  WAT1406     0.2052
   4215  H2        11.8800   27.4130   14.8100 H    1406  WAT1406     0.2052
   4216  O         13.3600   27.9290   13.8060 O.3  1407  WAT1407    -0.4105
   4217  H1        12.8330   28.4540   13.2030 H    1407  WAT1407     0.2052
   4218  H2        13.7030   28.5620   14.4370 H    1407  WAT1407     0.2052
   4219  O          5.7590   25.3190    0.2510 O.3  1408  WAT1408    -0.4105
   4220  H1         5.5570   24.4550    0.6120 H    1408  WAT1408     0.2052
   4221  H2         5.5880   25.2320   -0.6870 H    1408  WAT1408     0.2052
   4222  O          7.7880   23.9180   16.4870 O.3  1409  WAT1409    -0.4105
   4223  H1         8.3780   23.6090   17.1750 H    1409  WAT1409     0.2052
   4224  H2         6.9700   23.4460   16.6430 H    1409  WAT1409     0.2052
   4225  O         12.6070   23.5340   16.7210 O.3  1410  WAT1410    -0.4105
   4226  H1        11.9190   22.8730   16.6560 H    1410  WAT1410     0.2052
   4227  H2        13.3280   23.0880   17.1650 H    1410  WAT1410     0.2052
   4228  O         13.2370   20.1300    2.7800 O.3  1411  WAT1411    -0.4105
   4229  H1        13.5180   19.2860    3.1360 H    1411  WAT1411     0.2052
   4230  H2        12.4640   20.3620    3.2940 H    1411  WAT1411     0.2052
   4231  O          4.5570   22.4190    0.2390 O.3  1412  WAT1412    -0.4105
   4232  H1         4.8590   22.4260   -0.6690 H    1412  WAT1412     0.2052
   4233  H2         5.2960   22.0690    0.7360 H    1412  WAT1412     0.2052
   4234  O          7.7750   21.3620    1.2240 O.3  1413  WAT1413    -0.4105
   4235  H1         7.4270   20.6850    0.6450 H    1413  WAT1413     0.2052
   4236  H2         7.9770   20.9010    2.0390 H    1413  WAT1413     0.2052
   4237  O          1.1160   27.8910    7.6210 O.3  1414  WAT1414    -0.4105
   4238  H1         0.4610   27.6220    6.9770 H    1414  WAT1414     0.2052
   4239  H2         1.9540   27.7810    7.1710 H    1414  WAT1414     0.2052
   4240  O         14.0650   22.6850    1.8430 O.3  1415  WAT1415    -0.4105
   4241  H1        14.4830   22.4980    1.0020 H    1415  WAT1415     0.2052
   4242  H2        13.7580   21.8330    2.1530 H    1415  WAT1415     0.2052
   4243  O         17.5640   27.5980    5.5400 O.3  1416  WAT1416    -0.4105
   4244  H1        17.1880   26.8300    5.1080 H    1416  WAT1416     0.2052
   4245  H2        16.8340   27.9800    6.0280 H    1416  WAT1416     0.2052
   4246  O          2.1530   28.2760   12.1610 O.3  1417  WAT1417    -0.4105
   4247  H1         2.5210   28.1890   13.0410 H    1417  WAT1417     0.2052
   4248  H2         1.5850   27.5130   12.0620 H    1417  WAT1417     0.2052
   4249  O         16.9540   26.7450   15.1740 O.3  1418  WAT1418    -0.4105
   4250  H1        16.7220   26.5160   14.2740 H    1418  WAT1418     0.2052
   4251  H2        17.2140   27.6650   15.1290 H    1418  WAT1418     0.2052
   4252  O          1.7050   25.1870   16.0670 O.3  1419  WAT1419    -0.4105
   4253  H1         0.8110   25.1540   16.4060 H    1419  WAT1419     0.2052
   4254  H2         2.2450   25.3860   16.8320 H    1419  WAT1419     0.2052
   4255  O         15.3930   21.9700   17.9520 O.3  1420  WAT1420    -0.4105
   4256  H1        16.2700   21.9790   18.3360 H    1420  WAT1420     0.2052
   4257  H2        15.4050   21.2330   17.3410 H    1420  WAT1420     0.2052
   4258  O          0.3300   25.1010    3.5630 O.3  1421  WAT1421    -0.4105
   4259  H1        -0.5740   25.3640    3.3890 H    1421  WAT1421     0.2052
   4260  H2         0.8140   25.3720    2.7830 H    1421  WAT1421     0.2052
   4261  O         16.8390   25.8230    8.8410 O.3  1422  WAT1422    -0.4105
   4262  H1        17.3630   25.3300    8.2100 H    1422  WAT1422     0.2052
   4263  H2        17.4250   25.9580    9.5860 H    1422  WAT1422     0.2052
   4264  O         17.0180   25.9070   12.3630 O.3  1423  WAT1423    -0.4105
   4265  H1        16.0680   25.8740   12.4770 H    1423  WAT1423     0.2052
   4266  H2        17.1990   26.8170   12.1280 H    1423  WAT1423     0.2052
   4267  O          2.8720   24.1570    1.4730 O.3  1424  WAT1424    -0.4105
   4268  H1         3.5820   23.7360    0.9880 H    1424  WAT1424     0.2052
   4269  H2         2.1560   24.2250    0.8410 H    1424  WAT1424     0.2052
   4270  O          2.5200   20.2110    0.5130 O.3  1425  WAT1425    -0.4105
   4271  H1         3.2430   20.7520    0.8310 H    1425  WAT1425     0.2052
   4272  H2         2.7920   19.9380   -0.3630 H    1425  WAT1425     0.2052
   4273  O         16.3290   25.0810    4.7800 O.3  1426  WAT1426    -0.4105
   4274  H1        16.8250   24.8480    5.5650 H    1426  WAT1426     0.2052
   4275  H2        16.1310   24.2420    4.3640 H    1426  WAT1426     0.2052
   4276  O          2.2090   19.4620   10.4150 O.3  1427  WAT1427    -0.4105
   4277  H1         2.8570   18.9120    9.9750 H    1427  WAT1427     0.2052
   4278  H2         2.6290   19.7160   11.2370 H    1427  WAT1427     0.2052
   4279  O         17.7580   23.7170    7.3140 O.3  1428  WAT1428    -0.4105
   4280  H1        17.6480   23.5620    8.2520 H    1428  WAT1428     0.2052
   4281  H2        18.5180   23.1890    7.0720 H    1428  WAT1428     0.2052
   4282  O         16.1040   19.6560   13.7720 O.3  1429  WAT1429    -0.4105
   4283  H1        16.7410   20.2700   14.1380 H    1429  WAT1429     0.2052
   4284  H2        16.2520   19.6920   12.8270 H    1429  WAT1429     0.2052
   4285  O         18.6470   21.5480    0.5550 O.3  1430  WAT1430    -0.4105
   4286  H1        19.5720   21.4160    0.3460 H    1430  WAT1430     0.2052
   4287  H2        18.6240   21.6270    1.5080 H    1430  WAT1430     0.2052
   4288  O         18.7210   22.3190    3.1800 O.3  1431  WAT1431    -0.4105
   4289  H1        17.9260   22.2530    3.7100 H    1431  WAT1431     0.2052
   4290  H2        18.9250   23.2540    3.1690 H    1431  WAT1431     0.2052
   4291  O          1.9620   19.6180   13.1580 O.3  1432  WAT1432    -0.4105
   4292  H1         1.6140   20.0740   13.9240 H    1432  WAT1432     0.2052
   4293  H2         1.6310   18.7230   13.2400 H    1432  WAT1432     0.2052
   4294  O          9.4750   20.8090   16.6800 O.3  1433  WAT1433    -0.4105
   4295  H1         9.4140   21.4010   17.4290 H    1433  WAT1433     0.2052
   4296  H2        10.4150   20.7010   16.5350 H    1433  WAT1433     0.2052
   4297  O         12.1120   20.4660   16.3190 O.3  1434  WAT1434    -0.4105
   4298  H1        12.7260   20.7840   15.6570 H    1434  WAT1434     0.2052
   4299  H2        12.6570   19.9810   16.9390 H    1434  WAT1434     0.2052
   4300  O          2.6340   19.1450   16.4330 O.3  1435  WAT1435    -0.4105
   4301  H1         3.1830   18.9640   15.6700 H    1435  WAT1435     0.2052
   4302  H2         2.7000   18.3550   16.9690 H    1435  WAT1435     0.2052
   4303  O         12.8530   19.0290   12.6460 O.3  1436  WAT1436    -0.4105
   4304  H1        11.9790   19.3630   12.4430 H    1436  WAT1436     0.2052
   4305  H2        12.7440   18.5560   13.4710 H    1436  WAT1436     0.2052
   4306  O         13.7600   21.2360   14.0300 O.3  1437  WAT1437    -0.4105
   4307  H1        13.4310   20.4210   13.6500 H    1437  WAT1437     0.2052
   4308  H2        14.7080   21.1930   13.9070 H    1437  WAT1437     0.2052
   4309  O         10.6000   19.9460   11.5850 O.3  1438  WAT1438    -0.4105
   4310  H1         9.8180   20.4210   11.8650 H    1438  WAT1438     0.2052
   4311  H2        10.3070   19.0410   11.4770 H    1438  WAT1438     0.2052
   4312  O         15.1530   20.6480    9.6300 O.3  1439  WAT1439    -0.4105
   4313  H1        15.5930   20.5930    8.7820 H    1439  WAT1439     0.2052
   4314  H2        14.8830   21.5640    9.7010 H    1439  WAT1439     0.2052
   4315  O         17.0160   20.2800    7.6410 O.3  1440  WAT1440    -0.4105
   4316  H1        16.9550   19.3360    7.4940 H    1440  WAT1440     0.2052
   4317  H2        17.7960   20.3880    8.1860 H    1440  WAT1440     0.2052
   4318  O          1.9440   20.2510    4.1070 O.3  1441  WAT1441    -0.4105
   4319  H1         2.7020   20.3640    3.5330 H    1441  WAT1441     0.2052
   4320  H2         1.4820   21.0880    4.0610 H    1441  WAT1441     0.2052
   4321  O          8.4860   22.3650    7.0970 O.3  1442  WAT1442    -0.4105
   4322  H1         7.6730   21.9900    6.7560 H    1442  WAT1442     0.2052
   4323  H2         8.9900   21.6090    7.3990 H    1442  WAT1442     0.2052
   4324  O         12.9880   19.0290    8.3350 O.3  1443  WAT1443    -0.4105
   4325  H1        13.5910   19.6010    8.8100 H    1443  WAT1443     0.2052
   4326  H2        12.2480   19.5930    8.1130 H    1443  WAT1443     0.2052
   4327  O         16.1320   19.4310    3.6090 O.3  1444  WAT1444    -0.4105
   4328  H1        16.3270   20.3290    3.8760 H    1444  WAT1444     0.2052
   4329  H2        15.3450   19.2000    4.1020 H    1444  WAT1444     0.2052
   4330  O          4.3170   20.7770    2.6470 O.3  1445  WAT1445    -0.4105
   4331  H1         4.8460   19.9900    2.5180 H    1445  WAT1445     0.2052
   4332  H2         4.9500   21.4560    2.8800 H    1445  WAT1445     0.2052
   4333  O          6.5110   20.5150    5.7010 O.3  1446  WAT1446    -0.4105
   4334  H1         5.8810   19.8130    5.8680 H    1446  WAT1446     0.2052
   4335  H2         5.9710   21.2750    5.4850 H    1446  WAT1446     0.2052
   4336  O          6.6360   19.7930   18.1370 O.3  1447  WAT1447    -0.4105
   4337  H1         6.3550   20.2960   17.3730 H    1447  WAT1447     0.2052
   4338  H2         7.0180   18.9950   17.7710 H    1447  WAT1447     0.2052
   4339  O         13.2380   19.2080   18.7150 O.3  1448  WAT1448    -0.4105
   4340  H1        13.1240   19.5280   19.6100 H    1448  WAT1448     0.2052
   4341  H2        14.0550   19.6100   18.4180 H    1448  WAT1448     0.2052
   4342  O         12.1440   27.2280  -10.9220 O.3  1449  WAT1449    -0.4105
   4343  H1        12.0630   26.3130  -11.1930 H    1449  WAT1449     0.2052
   4344  H2        11.7300   27.7240  -11.6280 H    1449  WAT1449     0.2052
   4345  O         10.2750   29.0060   -9.0410 O.3  1450  WAT1450    -0.4105
   4346  H1         9.5000   28.5260   -8.7510 H    1450  WAT1450     0.2052
   4347  H2        10.9270   28.3260   -9.2150 H    1450  WAT1450     0.2052
   4348  O          4.2920   29.3180   -8.1630 O.3  1451  WAT1451    -0.4105
   4349  H1         3.4610   29.0620   -7.7640 H    1451  WAT1451     0.2052
   4350  H2         4.9000   29.3890   -7.4280 H    1451  WAT1451     0.2052
   4351  O          2.7010   24.2780  -14.3790 O.3  1452  WAT1452    -0.4105
   4352  H1         1.8130   24.6190  -14.4810 H    1452  WAT1452     0.2052
   4353  H2         2.9850   24.0780  -15.2710 H    1452  WAT1452     0.2052
   4354  O          0.6650   26.8780   -8.4950 O.3  1453  WAT1453    -0.4105
   4355  H1         1.2360   26.1110   -8.4950 H    1453  WAT1453     0.2052
   4356  H2         0.6650   27.1770   -9.4050 H    1453  WAT1453     0.2052
   4357  O          1.9070   22.2870   -6.7080 O.3  1454  WAT1454    -0.4105
   4358  H1         1.7270   21.3890   -6.4280 H    1454  WAT1454     0.2052
   4359  H2         1.5050   22.8340   -6.0340 H    1454  WAT1454     0.2052
   4360  O         10.7470   24.4880   -8.8070 O.3  1455  WAT1455    -0.4105
   4361  H1        11.1230   23.6150   -8.9200 H    1455  WAT1455     0.2052
   4362  H2        10.6490   24.8240   -9.6980 H    1455  WAT1455     0.2052
   4363  O          4.8770   22.8610  -13.3450 O.3  1456  WAT1456    -0.4105
   4364  H1         4.9840   23.7610  -13.0380 H    1456  WAT1456     0.2052
   4365  H2         3.9670   22.8130  -13.6360 H    1456  WAT1456     0.2052
   4366  O         14.5290   21.9830  -11.8740 O.3  1457  WAT1457    -0.4105
   4367  H1        15.3500   21.4930  -11.8320 H    1457  WAT1457     0.2052
   4368  H2        14.5630   22.5730  -11.1210 H    1457  WAT1457     0.2052
   4369  O          2.5260   24.7830   -8.1000 O.3  1458  WAT1458    -0.4105
   4370  H1         3.2070   25.0470   -7.4810 H    1458  WAT1458     0.2052
   4371  H2         2.2110   23.9430   -7.7660 H    1458  WAT1458     0.2052
   4372  O          6.7180   25.8300   -9.0130 O.3  1459  WAT1459    -0.4105
   4373  H1         7.2260   26.3280   -8.3720 H    1459  WAT1459     0.2052
   4374  H2         7.2500   25.0530   -9.1890 H    1459  WAT1459     0.2052
   4375  O         18.8190   24.0000   -5.3100 O.3  1460  WAT1460    -0.4105
   4376  H1        18.1140   24.3880   -5.8280 H    1460  WAT1460     0.2052
   4377  H2        19.0850   24.6950   -4.7080 H    1460  WAT1460     0.2052
   4378  O          5.0020   20.4690   -4.7460 O.3  1461  WAT1461    -0.4105
   4379  H1         5.0040   20.9870   -5.5520 H    1461  WAT1461     0.2052
   4380  H2         4.1720   19.9920   -4.7690 H    1461  WAT1461     0.2052
   4381  O         14.7650   23.9230   -9.1010 O.3  1462  WAT1462    -0.4105
   4382  H1        14.0610   24.2120   -8.5210 H    1462  WAT1462     0.2052
   4383  H2        15.1270   24.7330   -9.4620 H    1462  WAT1462     0.2052
   4384  O          4.6830   22.1800   -6.7390 O.3  1463  WAT1463    -0.4105
   4385  H1         5.0250   23.0250   -7.0340 H    1463  WAT1463     0.2052
   4386  H2         3.7450   22.3290   -6.6230 H    1463  WAT1463     0.2052
   4387  O         17.8340   23.3690   -8.7110 O.3  1464  WAT1464    -0.4105
   4388  H1        16.8870   23.4030   -8.5790 H    1464  WAT1464     0.2052
   4389  H2        18.1590   24.1830   -8.3260 H    1464  WAT1464     0.2052
   4390  O          8.3660   19.6690  -10.4150 O.3  1465  WAT1465    -0.4105
   4391  H1         8.6740   19.1130  -11.1310 H    1465  WAT1465     0.2052
   4392  H2         7.4360   19.8030  -10.5980 H    1465  WAT1465     0.2052
   4393  O         10.7540   27.7330  -13.6790 O.3  1466  WAT1466    -0.4105
   4394  H1         9.8270   27.6670  -13.4500 H    1466  WAT1466     0.2052
   4395  H2        10.9070   28.6710  -13.7930 H    1466  WAT1466     0.2052
   4396  O         10.7410   24.0050  -16.6820 O.3  1467  WAT1467    -0.4105
   4397  H1         9.8010   24.1670  -16.5970 H    1467  WAT1467     0.2052
   4398  H2        11.0590   24.7240  -17.2290 H    1467  WAT1467     0.2052
   4399  O         17.2620   28.6870   -6.7040 O.3  1468  WAT1468    -0.4105
   4400  H1        16.4340   28.7560   -7.1790 H    1468  WAT1468     0.2052
   4401  H2        17.8570   29.2720   -7.1730 H    1468  WAT1468     0.2052
   4402  O         14.7840   29.2960  -13.1750 O.3  1469  WAT1469    -0.4105
   4403  H1        14.1650   28.9570  -13.8230 H    1469  WAT1469     0.2052
   4404  H2        14.7660   28.6510  -12.4670 H    1469  WAT1469     0.2052
   4405  O         14.2270   25.4740   -5.7590 O.3  1470  WAT1470    -0.4105
   4406  H1        13.8140   26.2990   -5.5050 H    1470  WAT1470     0.2052
   4407  H2        13.4940   24.8880   -5.9510 H    1470  WAT1470     0.2052
   4408  O          6.3600   28.2600  -10.8970 O.3  1471  WAT1471    -0.4105
   4409  H1         5.9560   27.5480  -11.3920 H    1471  WAT1471     0.2052
   4410  H2         6.4460   27.9150  -10.0080 H    1471  WAT1471     0.2052
   4411  O          5.0730   25.0340   -7.1170 O.3  1472  WAT1472    -0.4105
   4412  H1         5.6240   25.1440   -7.8920 H    1472  WAT1472     0.2052
   4413  H2         5.5870   25.4080   -6.4020 H    1472  WAT1472     0.2052
   4414  O         12.9600   28.5340  -16.1680 O.3  1473  WAT1473    -0.4105
   4415  H1        13.4000   27.6960  -16.3140 H    1473  WAT1473     0.2052
   4416  H2        13.6730   29.1670  -16.0820 H    1473  WAT1473     0.2052
   4417  O          4.7470   28.5560   -3.5070 O.3  1474  WAT1474    -0.4105
   4418  H1         4.6080   29.4280   -3.1380 H    1474  WAT1474     0.2052
   4419  H2         3.8650   28.2130   -3.6520 H    1474  WAT1474     0.2052
   4420  O         16.5420   19.7880  -17.8540 O.3  1475  WAT1475    -0.4105
   4421  H1        16.2290   19.8810  -16.9540 H    1475  WAT1475     0.2052
   4422  H2        17.3030   20.3670  -17.9040 H    1475  WAT1475     0.2052
   4423  O          3.0600   27.1540  -13.3960 O.3  1476  WAT1476    -0.4105
   4424  H1         2.9400   27.8810  -14.0080 H    1476  WAT1476     0.2052
   4425  H2         2.7500   26.3850  -13.8740 H    1476  WAT1476     0.2052
   4426  O         17.7520   24.5260   -1.8770 O.3  1477  WAT1477    -0.4105
   4427  H1        17.1370   25.0340   -2.4050 H    1477  WAT1477     0.2052
   4428  H2        17.4320   23.6250   -1.9340 H    1477  WAT1477     0.2052
   4429  O          5.5270   20.4980  -10.0140 O.3  1478  WAT1478    -0.4105
   4430  H1         5.0830   21.2790  -10.3450 H    1478  WAT1478     0.2052
   4431  H2         6.0850   20.8210   -9.3070 H    1478  WAT1478     0.2052
   4432  O          9.8140   23.3650   -4.4100 O.3  1479  WAT1479    -0.4105
   4433  H1         9.3520   23.5730   -3.5980 H    1479  WAT1479     0.2052
   4434  H2         9.4110   22.5510   -4.7130 H    1479  WAT1479     0.2052
   4435  O         14.8140   24.5860   -3.2810 O.3  1480  WAT1480    -0.4105
   4436  H1        13.9630   24.2860   -2.9600 H    1480  WAT1480     0.2052
   4437  H2        14.6540   24.8300   -4.1920 H    1480  WAT1480     0.2052
   4438  O         11.9090   26.0860   -1.1810 O.3  1481  WAT1481    -0.4105
   4439  H1        12.2340   25.2520   -1.5210 H    1481  WAT1481     0.2052
   4440  H2        12.6970   26.6090   -1.0330 H    1481  WAT1481     0.2052
   4441  O          8.6430   20.1190  -15.1330 O.3  1482  WAT1482    -0.4105
   4442  H1         8.0180   20.1150  -14.4080 H    1482  WAT1482     0.2052
   4443  H2         8.5560   19.2520  -15.5300 H    1482  WAT1482     0.2052
   4444  O          7.5640   21.0430   -8.1550 O.3  1483  WAT1483    -0.4105
   4445  H1         7.8620   21.9490   -8.2360 H    1483  WAT1483     0.2052
   4446  H2         8.1130   20.5550   -8.7690 H    1483  WAT1483     0.2052
   4447  O          5.3180   25.6210  -12.2860 O.3  1484  WAT1484    -0.4105
   4448  H1         5.0920   25.4050  -11.3810 H    1484  WAT1484     0.2052
   4449  H2         4.5370   26.0540  -12.6310 H    1484  WAT1484     0.2052
   4450  O         12.5480   25.6280  -13.6870 O.3  1485  WAT1485    -0.4105
   4451  H1        11.9490   26.3510  -13.8700 H    1485  WAT1485     0.2052
   4452  H2        13.0960   25.5650  -14.4690 H    1485  WAT1485     0.2052
   4453  O          7.7580   26.5200   -1.6200 O.3  1486  WAT1486    -0.4105
   4454  H1         7.6620   25.5790   -1.7700 H    1486  WAT1486     0.2052
   4455  H2         8.6010   26.7410   -2.0150 H    1486  WAT1486     0.2052
   4456  O         11.1540   24.2640  -11.6560 O.3  1487  WAT1487    -0.4105
   4457  H1        11.5470   24.5810  -12.4700 H    1487  WAT1487     0.2052
   4458  H2        11.5160   23.3850  -11.5420 H    1487  WAT1487     0.2052
   4459  O          2.8890   22.9310   -3.4660 O.3  1488  WAT1488    -0.4105
   4460  H1         2.4950   23.7790   -3.2590 H    1488  WAT1488     0.2052
   4461  H2         2.2010   22.2940   -3.2760 H    1488  WAT1488     0.2052
   4462  O          9.4640   23.0150   -0.3970 O.3  1489  WAT1489    -0.4105
   4463  H1         8.7730   22.8220    0.2380 H    1489  WAT1489     0.2052
   4464  H2        10.2070   23.2980    0.1360 H    1489  WAT1489     0.2052
   4465  O          0.1910   20.8540   -9.4330 O.3  1490  WAT1490    -0.4105
   4466  H1        -0.0980   21.4240   -8.7210 H    1490  WAT1490     0.2052
   4467  H2         0.9350   20.3750   -9.0700 H    1490  WAT1490     0.2052
   4468  O          0.3780   24.7960  -18.2230 O.3  1491  WAT1491    -0.4105
   4469  H1         0.2950   25.7390  -18.0820 H    1491  WAT1491     0.2052
   4470  H2         0.0260   24.6540  -19.1020 H    1491  WAT1491     0.2052
   4471  O         11.7400   26.8550   -7.5610 O.3  1492  WAT1492    -0.4105
   4472  H1        11.0080   27.3630   -7.2120 H    1492  WAT1492     0.2052
   4473  H2        11.3420   26.0380   -7.8620 H    1492  WAT1492     0.2052
   4474  O          8.1780   23.5300   -9.1560 O.3  1493  WAT1493    -0.4105
   4475  H1         8.1810   23.0890  -10.0060 H    1493  WAT1493     0.2052
   4476  H2         9.0730   23.8520   -9.0490 H    1493  WAT1493     0.2052
   4477  O          4.0280   23.4130  -10.1970 O.3  1494  WAT1494    -0.4105
   4478  H1         3.6880   23.8900   -9.4400 H    1494  WAT1494     0.2052
   4479  H2         3.2660   22.9590  -10.5570 H    1494  WAT1494     0.2052
   4480  O          8.2400   24.5310  -16.1650 O.3  1495  WAT1495    -0.4105
   4481  H1         8.3610   24.4900  -15.2170 H    1495  WAT1495     0.2052
   4482  H2         7.8540   25.3940  -16.3210 H    1495  WAT1495     0.2052
   4483  O         12.2020   22.3080   -8.1490 O.3  1496  WAT1496    -0.4105
   4484  H1        12.2200   22.7590   -7.3050 H    1496  WAT1496     0.2052
   4485  H2        11.9540   21.4090   -7.9360 H    1496  WAT1496     0.2052
   4486  O          7.2520   26.8410  -16.7670 O.3  1497  WAT1497    -0.4105
   4487  H1         6.6830   26.3930  -17.3930 H    1497  WAT1497     0.2052
   4488  H2         7.9610   27.2010  -17.3010 H    1497  WAT1497     0.2052
   4489  O         15.6300   19.7210   -2.3100 O.3  1498  WAT1498    -0.4105
   4490  H1        15.9540   18.9900   -1.7850 H    1498  WAT1498     0.2052
   4491  H2        15.6650   19.4030   -3.2120 H    1498  WAT1498     0.2052
   4492  O          8.4780   27.5900   -7.4100 O.3  1499  WAT1499    -0.4105
   4493  H1         8.8450   27.1160   -6.6630 H    1499  WAT1499     0.2052
   4494  H2         8.2890   28.4640   -7.0690 H    1499  WAT1499     0.2052
   4495  O          1.3420   22.3350  -11.2800 O.3  1500  WAT1500    -0.4105
   4496  H1         1.0570   21.9700  -10.4420 H    1500  WAT1500     0.2052
   4497  H2         1.2800   21.6030  -11.8940 H    1500  WAT1500     0.2052
   4498  O          6.2680   26.6310   -5.0910 O.3  1501  WAT1501    -0.4105
   4499  H1         5.9640   27.5100   -4.8660 H    1501  WAT1501     0.2052
   4500  H2         7.2230   26.6910   -5.0550 H    1501  WAT1501     0.2052
   4501  O         11.0160   21.2270  -14.5590 O.3  1502  WAT1502    -0.4105
   4502  H1        10.2030   20.7290  -14.6340 H    1502  WAT1502     0.2052
   4503  H2        10.8230   22.0670  -14.9750 H    1502  WAT1502     0.2052
   4504  O         13.7310   25.5990  -16.2630 O.3  1503  WAT1503    -0.4105
   4505  H1        14.6190   25.9110  -16.4380 H    1503  WAT1503     0.2052
   4506  H2        13.7020   24.7270  -16.6550 H    1503  WAT1503     0.2052
   4507  O          2.3250   27.4710   -3.9440 O.3  1504  WAT1504    -0.4105
   4508  H1         1.9660   28.1370   -3.3570 H    1504  WAT1504     0.2052
   4509  H2         2.0300   26.6400   -3.5730 H    1504  WAT1504     0.2052
   4510  O          5.5260   27.9300   -1.0600 O.3  1505  WAT1505    -0.4105
   4511  H1         5.2260   28.0750   -1.9570 H    1505  WAT1505     0.2052
   4512  H2         6.2970   27.3700   -1.1530 H    1505  WAT1505     0.2052
   4513  O         16.0030   26.9110  -16.7950 O.3  1506  WAT1506    -0.4105
   4514  H1        15.9190   27.3420  -17.6450 H    1506  WAT1506     0.2052
   4515  H2        16.7220   27.3700  -16.3620 H    1506  WAT1506     0.2052
   4516  O          0.8360   27.4700  -17.3210 O.3  1507  WAT1507    -0.4105
   4517  H1         1.7050   27.7530  -17.0370 H    1507  WAT1507     0.2052
   4518  H2         0.3450   28.2840  -17.4360 H    1507  WAT1507     0.2052
   4519  O          7.9990   28.8580  -13.2000 O.3  1508  WAT1508    -0.4105
   4520  H1         8.4550   29.6680  -12.9740 H    1508  WAT1508     0.2052
   4521  H2         7.6480   28.5400  -12.3680 H    1508  WAT1508     0.2052
   4522  O          3.9000   19.2020  -12.7270 O.3  1509  WAT1509    -0.4105
   4523  H1         3.7720   19.1930  -11.7790 H    1509  WAT1509     0.2052
   4524  H2         3.0760   19.5400  -13.0780 H    1509  WAT1509     0.2052
   4525  O          0.9000   20.9610   -3.2670 O.3  1510  WAT1510    -0.4105
   4526  H1         0.1850   21.1600   -2.6620 H    1510  WAT1510     0.2052
   4527  H2         1.3190   20.1850   -2.8950 H    1510  WAT1510     0.2052
   4528  O         12.3930   23.4530   -5.5170 O.3  1511  WAT1511    -0.4105
   4529  H1        12.7620   22.6320   -5.1890 H    1511  WAT1511     0.2052
   4530  H2        11.5330   23.5130   -5.1010 H    1511  WAT1511     0.2052
   4531  O         15.7600   22.4090  -14.7080 O.3  1512  WAT1512    -0.4105
   4532  H1        15.1310   22.5130  -15.4220 H    1512  WAT1512     0.2052
   4533  H2        15.2650   22.6280  -13.9180 H    1512  WAT1512     0.2052
   4534  O          7.7280   24.6870  -13.2920 O.3  1513  WAT1513    -0.4105
   4535  H1         7.0200   25.1560  -12.8510 H    1513  WAT1513     0.2052
   4536  H2         8.0130   24.0290  -12.6580 H    1513  WAT1513     0.2052
   4537  O          9.3540   26.1070   -5.2930 O.3  1514  WAT1514    -0.4105
   4538  H1         9.8520   26.5810   -4.6280 H    1514  WAT1514     0.2052
   4539  H2         9.4960   25.1830   -5.0860 H    1514  WAT1514     0.2052
   4540  O         11.7600   21.4120  -11.8530 O.3  1515  WAT1515    -0.4105
   4541  H1        11.6360   21.4310  -12.8020 H    1515  WAT1515     0.2052
   4542  H2        12.7080   21.4600  -11.7330 H    1515  WAT1515     0.2052
   4543  O          5.9320   22.9960  -15.9170 O.3  1516  WAT1516    -0.4105
   4544  H1         6.7810   23.4330  -15.9830 H    1516  WAT1516     0.2052
   4545  H2         5.5650   23.3080  -15.0900 H    1516  WAT1516     0.2052
   4546  O         16.5600   22.3240   -4.4500 O.3  1517  WAT1517    -0.4105
   4547  H1        16.0580   23.0640   -4.1110 H    1517  WAT1517     0.2052
   4548  H2        17.3760   22.7120   -4.7660 H    1517  WAT1517     0.2052
   4549  O         14.8530   27.5670  -11.0040 O.3  1518  WAT1518    -0.4105
   4550  H1        13.9120   27.5820  -10.8290 H    1518  WAT1518     0.2052
   4551  H2        15.1670   26.7810  -10.5580 H    1518  WAT1518     0.2052
   4552  O          4.8310   29.2490  -17.4430 O.3  1519  WAT1519    -0.4105
   4553  H1         5.5970   29.1370  -16.8810 H    1519  WAT1519     0.2052
   4554  H2         4.9080   28.5530  -18.0960 H    1519  WAT1519     0.2052
   4555  O          3.5250   26.6810  -16.7600 O.3  1520  WAT1520    -0.4105
   4556  H1         3.6060   25.7340  -16.6480 H    1520  WAT1520     0.2052
   4557  H2         4.4170   27.0120  -16.6540 H    1520  WAT1520     0.2052
   4558  O          1.0520   28.5030   -1.5250 O.3  1521  WAT1521    -0.4105
   4559  H1         1.5560   27.9240   -0.9530 H    1521  WAT1521     0.2052
   4560  H2         0.3130   28.7870   -0.9870 H    1521  WAT1521     0.2052
   4561  O          3.0850   26.6460   -0.6300 O.3  1522  WAT1522    -0.4105
   4562  H1         3.1250   26.3470    0.2790 H    1522  WAT1522     0.2052
   4563  H2         3.9390   27.0470   -0.7890 H    1522  WAT1522     0.2052
   4564  O          6.8630   29.2450  -15.4690 O.3  1523  WAT1523    -0.4105
   4565  H1         7.2840   29.0790  -14.6260 H    1523  WAT1523     0.2052
   4566  H2         6.9880   28.4350  -15.9640 H    1523  WAT1523     0.2052
   4567  O          5.0250   25.2250   -2.6620 O.3  1524  WAT1524    -0.4105
   4568  H1         4.4950   24.7340   -3.2900 H    1524  WAT1524     0.2052
   4569  H2         5.6940   25.6530   -3.1960 H    1524  WAT1524     0.2052
   4570  O          9.3750   28.2690  -18.2210 O.3  1525  WAT1525    -0.4105
   4571  H1         9.8960   27.5540  -18.5870 H    1525  WAT1525     0.2052
   4572  H2        10.0220   28.9080  -17.9210 H    1525  WAT1525     0.2052
   4573  O         13.9230   29.6920   -2.8980 O.3  1526  WAT1526    -0.4105
   4574  H1        14.3370   29.8470   -2.0490 H    1526  WAT1526     0.2052
   4575  H2        12.9880   29.8180   -2.7350 H    1526  WAT1526     0.2052
   4576  O         14.3950   27.0320   -0.8940 O.3  1527  WAT1527    -0.4105
   4577  H1        14.9770   26.2770   -0.9820 H    1527  WAT1527     0.2052
   4578  H2        14.5720   27.5620   -1.6710 H    1527  WAT1527     0.2052
   4579  O          5.5130   22.1910   -2.5820 O.3  1528  WAT1528    -0.4105
   4580  H1         5.4180   21.5730   -3.3070 H    1528  WAT1528     0.2052
   4581  H2         4.9320   22.9180   -2.8090 H    1528  WAT1528     0.2052
   4582  O          8.2790   20.7490   -5.5500 O.3  1529  WAT1529    -0.4105
   4583  H1         7.8300   20.7710   -6.3950 H    1529  WAT1529     0.2052
   4584  H2         7.6450   20.3510   -4.9530 H    1529  WAT1529     0.2052
   4585  O         11.0210   27.3760   -3.5450 O.3  1530  WAT1530    -0.4105
   4586  H1        11.1410   26.7800   -2.8050 H    1530  WAT1530     0.2052
   4587  H2        11.8800   27.4130   -3.9640 H    1530  WAT1530     0.2052
   4588  O         13.3600   27.9290   -4.9680 O.3  1531  WAT1531    -0.4105
   4589  H1        12.8330   28.4540   -5.5720 H    1531  WAT1531     0.2052
   4590  H2        13.7030   28.5620   -4.3370 H    1531  WAT1531     0.2052
   4591  O          5.7590   25.3190  -18.5230 O.3  1532  WAT1532    -0.4105
   4592  H1         5.5570   24.4550  -18.1620 H    1532  WAT1532     0.2052
   4593  H2         5.5880   25.2320  -19.4610 H    1532  WAT1532     0.2052
   4594  O          7.7880   23.9180   -2.2870 O.3  1533  WAT1533    -0.4105
   4595  H1         8.3780   23.6090   -1.5990 H    1533  WAT1533     0.2052
   4596  H2         6.9700   23.4460   -2.1310 H    1533  WAT1533     0.2052
   4597  O         12.6070   23.5340   -2.0540 O.3  1534  WAT1534    -0.4105
   4598  H1        11.9190   22.8730   -2.1190 H    1534  WAT1534     0.2052
   4599  H2        13.3280   23.0880   -1.6090 H    1534  WAT1534     0.2052
   4600  O         13.2370   20.1300  -15.9950 O.3  1535  WAT1535    -0.4105
   4601  H1        13.5180   19.2860  -15.6390 H    1535  WAT1535     0.2052
   4602  H2        12.4640   20.3620  -15.4810 H    1535  WAT1535     0.2052
   4603  O          4.5570   22.4190  -18.5360 O.3  1536  WAT1536    -0.4105
   4604  H1         4.8590   22.4260  -19.4440 H    1536  WAT1536     0.2052
   4605  H2         5.2960   22.0690  -18.0390 H    1536  WAT1536     0.2052
   4606  O          7.7750   21.3620  -17.5500 O.3  1537  WAT1537    -0.4105
   4607  H1         7.4270   20.6850  -18.1300 H    1537  WAT1537     0.2052
   4608  H2         7.9770   20.9010  -16.7360 H    1537  WAT1537     0.2052
   4609  O          1.1160   27.8910  -11.1540 O.3  1538  WAT1538    -0.4105
   4610  H1         0.4610   27.6220  -11.7980 H    1538  WAT1538     0.2052
   4611  H2         1.9540   27.7810  -11.6030 H    1538  WAT1538     0.2052
   4612  O         14.0650   22.6850  -16.9320 O.3  1539  WAT1539    -0.4105
   4613  H1        14.4830   22.4980  -17.7720 H    1539  WAT1539     0.2052
   4614  H2        13.7580   21.8330  -16.6210 H    1539  WAT1539     0.2052
   4615  O         17.5640   27.5980  -13.2340 O.3  1540  WAT1540    -0.4105
   4616  H1        17.1880   26.8300  -13.6660 H    1540  WAT1540     0.2052
   4617  H2        16.8340   27.9800  -12.7470 H    1540  WAT1540     0.2052
   4618  O          2.1530   28.2760   -6.6130 O.3  1541  WAT1541    -0.4105
   4619  H1         2.5210   28.1890   -5.7340 H    1541  WAT1541     0.2052
   4620  H2         1.5850   27.5130   -6.7130 H    1541  WAT1541     0.2052
   4621  O         16.9540   26.7450   -3.6000 O.3  1542  WAT1542    -0.4105
   4622  H1        16.7220   26.5160   -4.5000 H    1542  WAT1542     0.2052
   4623  H2        17.2140   27.6650   -3.6460 H    1542  WAT1542     0.2052
   4624  O          1.7050   25.1870   -2.7070 O.3  1543  WAT1543    -0.4105
   4625  H1         0.8110   25.1540   -2.3680 H    1543  WAT1543     0.2052
   4626  H2         2.2450   25.3860   -1.9420 H    1543  WAT1543     0.2052
   4627  O         15.3930   21.9700   -0.8220 O.3  1544  WAT1544    -0.4105
   4628  H1        16.2700   21.9790   -0.4390 H    1544  WAT1544     0.2052
   4629  H2        15.4050   21.2330   -1.4330 H    1544  WAT1544     0.2052
   4630  O          0.3300   25.1010  -15.2110 O.3  1545  WAT1545    -0.4105
   4631  H1        -0.5740   25.3640  -15.3860 H    1545  WAT1545     0.2052
   4632  H2         0.8140   25.3720  -15.9910 H    1545  WAT1545     0.2052
   4633  O         16.8390   25.8230   -9.9330 O.3  1546  WAT1546    -0.4105
   4634  H1        17.3630   25.3300  -10.5640 H    1546  WAT1546     0.2052
   4635  H2        17.4250   25.9580   -9.1890 H    1546  WAT1546     0.2052
   4636  O         17.0180   25.9070   -6.4110 O.3  1547  WAT1547    -0.4105
   4637  H1        16.0680   25.8740   -6.2970 H    1547  WAT1547     0.2052
   4638  H2        17.1990   26.8170   -6.6460 H    1547  WAT1547     0.2052
   4639  O          2.8720   24.1570  -17.3020 O.3  1548  WAT1548    -0.4105
   4640  H1         3.5820   23.7360  -17.7870 H    1548  WAT1548     0.2052
   4641  H2         2.1560   24.2250  -17.9330 H    1548  WAT1548     0.2052
   4642  O          2.5200   20.2110  -18.2610 O.3  1549  WAT1549    -0.4105
   4643  H1         3.2430   20.7520  -17.9430 H    1549  WAT1549     0.2052
   4644  H2         2.7920   19.9380  -19.1370 H    1549  WAT1549     0.2052
   4645  O         16.3290   25.0810  -13.9940 O.3  1550  WAT1550    -0.4105
   4646  H1        16.8250   24.8480  -13.2090 H    1550  WAT1550     0.2052
   4647  H2        16.1310   24.2420  -14.4100 H    1550  WAT1550     0.2052
   4648  O          2.2090   19.4620   -8.3590 O.3  1551  WAT1551    -0.4105
   4649  H1         2.8570   18.9120   -8.8000 H    1551  WAT1551     0.2052
   4650  H2         2.6290   19.7160   -7.5370 H    1551  WAT1551     0.2052
   4651  O         17.7580   23.7170  -11.4600 O.3  1552  WAT1552    -0.4105
   4652  H1        17.6480   23.5620  -10.5220 H    1552  WAT1552     0.2052
   4653  H2        18.5180   23.1890  -11.7030 H    1552  WAT1552     0.2052
   4654  O         16.1040   19.6560   -5.0020 O.3  1553  WAT1553    -0.4105
   4655  H1        16.7410   20.2700   -4.6360 H    1553  WAT1553     0.2052
   4656  H2        16.2520   19.6920   -5.9470 H    1553  WAT1553     0.2052
   4657  O         18.6470   21.5480  -18.2200 O.3  1554  WAT1554    -0.4105
   4658  H1        19.5720   21.4160  -18.4280 H    1554  WAT1554     0.2052
   4659  H2        18.6240   21.6270  -17.2660 H    1554  WAT1554     0.2052
   4660  O         18.7210   22.3190  -15.5940 O.3  1555  WAT1555    -0.4105
   4661  H1        17.9260   22.2530  -15.0650 H    1555  WAT1555     0.2052
   4662  H2        18.9250   23.2540  -15.6060 H    1555  WAT1555     0.2052
   4663  O          1.9620   19.6180   -5.6170 O.3  1556  WAT1556    -0.4105
   4664  H1         1.6140   20.0740   -4.8510 H    1556  WAT1556     0.2052
   4665  H2         1.6310   18.7230   -5.5340 H    1556  WAT1556     0.2052
   4666  O          9.4750   20.8090   -2.0950 O.3  1557  WAT1557    -0.4105
   4667  H1         9.4140   21.4010   -1.3450 H    1557  WAT1557     0.2052
   4668  H2        10.4150   20.7010   -2.2400 H    1557  WAT1557     0.2052
   4669  O         12.1120   20.4660   -2.4550 O.3  1558  WAT1558    -0.4105
   4670  H1        12.7260   20.7840   -3.1170 H    1558  WAT1558     0.2052
   4671  H2        12.6570   19.9810   -1.8360 H    1558  WAT1558     0.2052
   4672  O          2.6340   19.1450   -2.3410 O.3  1559  WAT1559    -0.4105
   4673  H1         3.1830   18.9640   -3.1050 H    1559  WAT1559     0.2052
   4674  H2         2.7000   18.3550   -1.8060 H    1559  WAT1559     0.2052
   4675  O         12.8530   19.0290   -6.1280 O.3  1560  WAT1560    -0.4105
   4676  H1        11.9790   19.3630   -6.3310 H    1560  WAT1560     0.2052
   4677  H2        12.7440   18.5560   -5.3030 H    1560  WAT1560     0.2052
   4678  O         13.7600   21.2360   -4.7440 O.3  1561  WAT1561    -0.4105
   4679  H1        13.4310   20.4210   -5.1240 H    1561  WAT1561     0.2052
   4680  H2        14.7080   21.1930   -4.8680 H    1561  WAT1561     0.2052
   4681  O         10.6000   19.9460   -7.1890 O.3  1562  WAT1562    -0.4105
   4682  H1         9.8180   20.4210   -6.9090 H    1562  WAT1562     0.2052
   4683  H2        10.3070   19.0410   -7.2980 H    1562  WAT1562     0.2052
   4684  O         15.1530   20.6480   -9.1440 O.3  1563  WAT1563    -0.4105
   4685  H1        15.5930   20.5930   -9.9920 H    1563  WAT1563     0.2052
   4686  H2        14.8830   21.5640   -9.0730 H    1563  WAT1563     0.2052
   4687  O         17.0160   20.2800  -11.1330 O.3  1564  WAT1564    -0.4105
   4688  H1        16.9550   19.3360  -11.2800 H    1564  WAT1564     0.2052
   4689  H2        17.7960   20.3880  -10.5880 H    1564  WAT1564     0.2052
   4690  O          1.9440   20.2510  -14.6680 O.3  1565  WAT1565    -0.4105
   4691  H1         2.7020   20.3640  -15.2410 H    1565  WAT1565     0.2052
   4692  H2         1.4820   21.0880  -14.7130 H    1565  WAT1565     0.2052
   4693  O          8.4860   22.3650  -11.6780 O.3  1566  WAT1566    -0.4105
   4694  H1         7.6730   21.9900  -12.0180 H    1566  WAT1566     0.2052
   4695  H2         8.9900   21.6090  -11.3750 H    1566  WAT1566     0.2052
   4696  O         12.9880   19.0290  -10.4390 O.3  1567  WAT1567    -0.4105
   4697  H1        13.5910   19.6010   -9.9640 H    1567  WAT1567     0.2052
   4698  H2        12.2480   19.5930  -10.6620 H    1567  WAT1567     0.2052
   4699  O         16.1320   19.4310  -15.1650 O.3  1568  WAT1568    -0.4105
   4700  H1        16.3270   20.3290  -14.8980 H    1568  WAT1568     0.2052
   4701  H2        15.3450   19.2000  -14.6720 H    1568  WAT1568     0.2052
   4702  O          4.3170   20.7770  -16.1280 O.3  1569  WAT1569    -0.4105
   4703  H1         4.8460   19.9900  -16.2570 H    1569  WAT1569     0.2052
   4704  H2         4.9500   21.4560  -15.8940 H    1569  WAT1569     0.2052
   4705  O          6.5110   20.5150  -13.0730 O.3  1570  WAT1570    -0.4105
   4706  H1         5.8810   19.8130  -12.9060 H    1570  WAT1570     0.2052
   4707  H2         5.9710   21.2750  -13.2900 H    1570  WAT1570     0.2052
   4708  O          6.6360   19.7930   -0.6380 O.3  1571  WAT1571    -0.4105
   4709  H1         6.3550   20.2960   -1.4020 H    1571  WAT1571     0.2052
   4710  H2         7.0180   18.9950   -1.0040 H    1571  WAT1571     0.2052
   4711  O         13.2380   19.2080   -0.0600 O.3  1572  WAT1572    -0.4105
   4712  H1        13.1240   19.5280    0.8350 H    1572  WAT1572     0.2052
   4713  H2        14.0550   19.6100   -0.3560 H    1572  WAT1572     0.2052
   4714  O         10.2750   29.0060  -27.8150 O.3  1573  WAT1573    -0.4105
   4715  H1         9.5000   28.5260  -27.5250 H    1573  WAT1573     0.2052
   4716  H2        10.9270   28.3260  -27.9900 H    1573  WAT1573     0.2052
   4717  O          4.2920   29.3180  -26.9380 O.3  1574  WAT1574    -0.4105
   4718  H1         3.4610   29.0620  -26.5380 H    1574  WAT1574     0.2052
   4719  H2         4.9000   29.3890  -26.2020 H    1574  WAT1574     0.2052
   4720  O          0.6650   26.8780  -27.2700 O.3  1575  WAT1575    -0.4105
   4721  H1         1.2360   26.1110  -27.2690 H    1575  WAT1575     0.2052
   4722  H2         0.6650   27.1770  -28.1790 H    1575  WAT1575     0.2052
   4723  O          1.9070   22.2870  -25.4830 O.3  1576  WAT1576    -0.4105
   4724  H1         1.7270   21.3890  -25.2020 H    1576  WAT1576     0.2052
   4725  H2         1.5050   22.8340  -24.8080 H    1576  WAT1576     0.2052
   4726  O         10.7470   24.4880  -27.5810 O.3  1577  WAT1577    -0.4105
   4727  H1        11.1230   23.6150  -27.6940 H    1577  WAT1577     0.2052
   4728  H2        10.6490   24.8240  -28.4720 H    1577  WAT1577     0.2052
   4729  O          2.5260   24.7830  -26.8740 O.3  1578  WAT1578    -0.4105
   4730  H1         3.2070   25.0470  -26.2560 H    1578  WAT1578     0.2052
   4731  H2         2.2110   23.9430  -26.5410 H    1578  WAT1578     0.2052
   4732  O          6.7180   25.8300  -27.7870 O.3  1579  WAT1579    -0.4105
   4733  H1         7.2260   26.3280  -27.1470 H    1579  WAT1579     0.2052
   4734  H2         7.2500   25.0530  -27.9630 H    1579  WAT1579     0.2052
   4735  O         18.8190   24.0000  -24.0840 O.3  1580  WAT1580    -0.4105
   4736  H1        18.1140   24.3880  -24.6030 H    1580  WAT1580     0.2052
   4737  H2        19.0850   24.6950  -23.4820 H    1580  WAT1580     0.2052
   4738  O          5.0020   20.4690  -23.5210 O.3  1581  WAT1581    -0.4105
   4739  H1         5.0040   20.9870  -24.3260 H    1581  WAT1581     0.2052
   4740  H2         4.1720   19.9920  -23.5440 H    1581  WAT1581     0.2052
   4741  O         14.7650   23.9230  -27.8760 O.3  1582  WAT1582    -0.4105
   4742  H1        14.0610   24.2120  -27.2960 H    1582  WAT1582     0.2052
   4743  H2        15.1270   24.7330  -28.2360 H    1582  WAT1582     0.2052
   4744  O          4.6830   22.1800  -25.5140 O.3  1583  WAT1583    -0.4105
   4745  H1         5.0250   23.0250  -25.8080 H    1583  WAT1583     0.2052
   4746  H2         3.7450   22.3290  -25.3970 H    1583  WAT1583     0.2052
   4747  O         17.8340   23.3690  -27.4850 O.3  1584  WAT1584    -0.4105
   4748  H1        16.8870   23.4030  -27.3530 H    1584  WAT1584     0.2052
   4749  H2        18.1590   24.1830  -27.1000 H    1584  WAT1584     0.2052
   4750  O          8.3660   19.6690  -29.1890 O.3  1585  WAT1585    -0.4105
   4751  H1         8.6740   19.1130  -29.9060 H    1585  WAT1585     0.2052
   4752  H2         7.4360   19.8030  -29.3720 H    1585  WAT1585     0.2052
   4753  O         17.2620   28.6870  -25.4790 O.3  1586  WAT1586    -0.4105
   4754  H1        16.4340   28.7560  -25.9540 H    1586  WAT1586     0.2052
   4755  H2        17.8570   29.2720  -25.9470 H    1586  WAT1586     0.2052
   4756  O         14.2270   25.4740  -24.5330 O.3  1587  WAT1587    -0.4105
   4757  H1        13.8140   26.2990  -24.2790 H    1587  WAT1587     0.2052
   4758  H2        13.4940   24.8880  -24.7260 H    1587  WAT1587     0.2052
   4759  O          5.0730   25.0340  -25.8910 O.3  1588  WAT1588    -0.4105
   4760  H1         5.6240   25.1440  -26.6660 H    1588  WAT1588     0.2052
   4761  H2         5.5870   25.4080  -25.1760 H    1588  WAT1588     0.2052
   4762  O          4.7470   28.5560  -22.2810 O.3  1589  WAT1589    -0.4105
   4763  H1         4.6080   29.4280  -21.9120 H    1589  WAT1589     0.2052
   4764  H2         3.8650   28.2130  -22.4260 H    1589  WAT1589     0.2052
   4765  O         17.7520   24.5260  -20.6510 O.3  1590  WAT1590    -0.4105
   4766  H1        17.1370   25.0340  -21.1790 H    1590  WAT1590     0.2052
   4767  H2        17.4320   23.6250  -20.7080 H    1590  WAT1590     0.2052
   4768  O          5.5270   20.4980  -28.7880 O.3  1591  WAT1591    -0.4105
   4769  H1         5.0830   21.2790  -29.1200 H    1591  WAT1591     0.2052
   4770  H2         6.0850   20.8210  -28.0810 H    1591  WAT1591     0.2052
   4771  O          9.8140   23.3650  -23.1850 O.3  1592  WAT1592    -0.4105
   4772  H1         9.3520   23.5730  -22.3730 H    1592  WAT1592     0.2052
   4773  H2         9.4110   22.5510  -23.4880 H    1592  WAT1592     0.2052
   4774  O         14.8140   24.5860  -22.0550 O.3  1593  WAT1593    -0.4105
   4775  H1        13.9630   24.2860  -21.7340 H    1593  WAT1593     0.2052
   4776  H2        14.6540   24.8300  -22.9670 H    1593  WAT1593     0.2052
   4777  O         11.9090   26.0860  -19.9550 O.3  1594  WAT1594    -0.4105
   4778  H1        12.2340   25.2520  -20.2950 H    1594  WAT1594     0.2052
   4779  H2        12.6970   26.6090  -19.8070 H    1594  WAT1594     0.2052
   4780  O          7.5640   21.0430  -26.9290 O.3  1595  WAT1595    -0.4105
   4781  H1         7.8620   21.9490  -27.0100 H    1595  WAT1595     0.2052
   4782  H2         8.1130   20.5550  -27.5430 H    1595  WAT1595     0.2052
   4783  O          7.7580   26.5200  -20.3940 O.3  1596  WAT1596    -0.4105
   4784  H1         7.6620   25.5790  -20.5440 H    1596  WAT1596     0.2052
   4785  H2         8.6010   26.7410  -20.7890 H    1596  WAT1596     0.2052
   4786  O          2.8890   22.9310  -22.2410 O.3  1597  WAT1597    -0.4105
   4787  H1         2.4950   23.7790  -22.0330 H    1597  WAT1597     0.2052
   4788  H2         2.2010   22.2940  -22.0500 H    1597  WAT1597     0.2052
   4789  O          9.4640   23.0150  -19.1710 O.3  1598  WAT1598    -0.4105
   4790  H1         8.7730   22.8220  -18.5360 H    1598  WAT1598     0.2052
   4791  H2        10.2070   23.2980  -18.6390 H    1598  WAT1598     0.2052
   4792  O          0.1910   20.8540  -28.2080 O.3  1599  WAT1599    -0.4105
   4793  H1        -0.0980   21.4240  -27.4950 H    1599  WAT1599     0.2052
   4794  H2         0.9350   20.3750  -27.8450 H    1599  WAT1599     0.2052
   4795  O         11.7400   26.8550  -26.3360 O.3  1600  WAT1600    -0.4105
   4796  H1        11.0080   27.3630  -25.9870 H    1600  WAT1600     0.2052
   4797  H2        11.3420   26.0380  -26.6370 H    1600  WAT1600     0.2052
   4798  O          8.1780   23.5300  -27.9300 O.3  1601  WAT1601    -0.4105
   4799  H1         8.1810   23.0890  -28.7800 H    1601  WAT1601     0.2052
   4800  H2         9.0730   23.8520  -27.8230 H    1601  WAT1601     0.2052
   4801  O          4.0280   23.4130  -28.9710 O.3  1602  WAT1602    -0.4105
   4802  H1         3.6880   23.8900  -28.2140 H    1602  WAT1602     0.2052
   4803  H2         3.2660   22.9590  -29.3310 H    1602  WAT1602     0.2052
   4804  O         12.2020   22.3080  -26.9230 O.3  1603  WAT1603    -0.4105
   4805  H1        12.2200   22.7590  -26.0790 H    1603  WAT1603     0.2052
   4806  H2        11.9540   21.4090  -26.7100 H    1603  WAT1603     0.2052
   4807  O         15.6300   19.7210  -21.0850 O.3  1604  WAT1604    -0.4105
   4808  H1        15.9540   18.9900  -20.5590 H    1604  WAT1604     0.2052
   4809  H2        15.6650   19.4030  -21.9870 H    1604  WAT1604     0.2052
   4810  O          8.4780   27.5900  -26.1840 O.3  1605  WAT1605    -0.4105
   4811  H1         8.8450   27.1160  -25.4380 H    1605  WAT1605     0.2052
   4812  H2         8.2890   28.4640  -25.8430 H    1605  WAT1605     0.2052
   4813  O          6.2680   26.6310  -23.8650 O.3  1606  WAT1606    -0.4105
   4814  H1         5.9640   27.5100  -23.6400 H    1606  WAT1606     0.2052
   4815  H2         7.2230   26.6910  -23.8300 H    1606  WAT1606     0.2052
   4816  O          2.3250   27.4710  -22.7180 O.3  1607  WAT1607    -0.4105
   4817  H1         1.9660   28.1370  -22.1310 H    1607  WAT1607     0.2052
   4818  H2         2.0300   26.6400  -22.3470 H    1607  WAT1607     0.2052
   4819  O          5.5260   27.9300  -19.8340 O.3  1608  WAT1608    -0.4105
   4820  H1         5.2260   28.0750  -20.7320 H    1608  WAT1608     0.2052
   4821  H2         6.2970   27.3700  -19.9270 H    1608  WAT1608     0.2052
   4822  O          0.9000   20.9610  -22.0410 O.3  1609  WAT1609    -0.4105
   4823  H1         0.1850   21.1600  -21.4360 H    1609  WAT1609     0.2052
   4824  H2         1.3190   20.1850  -21.6700 H    1609  WAT1609     0.2052
   4825  O         12.3930   23.4530  -24.2910 O.3  1610  WAT1610    -0.4105
   4826  H1        12.7620   22.6320  -23.9630 H    1610  WAT1610     0.2052
   4827  H2        11.5330   23.5130  -23.8750 H    1610  WAT1610     0.2052
   4828  O          9.3540   26.1070  -24.0670 O.3  1611  WAT1611    -0.4105
   4829  H1         9.8520   26.5810  -23.4020 H    1611  WAT1611     0.2052
   4830  H2         9.4960   25.1830  -23.8600 H    1611  WAT1611     0.2052
   4831  O         16.5600   22.3240  -23.2240 O.3  1612  WAT1612    -0.4105
   4832  H1        16.0580   23.0640  -22.8850 H    1612  WAT1612     0.2052
   4833  H2        17.3760   22.7120  -23.5410 H    1612  WAT1612     0.2052
   4834  O         14.8530   27.5670  -29.7780 O.3  1613  WAT1613    -0.4105
   4835  H1        13.9120   27.5820  -29.6030 H    1613  WAT1613     0.2052
   4836  H2        15.1670   26.7810  -29.3320 H    1613  WAT1613     0.2052
   4837  O          1.0520   28.5030  -20.2990 O.3  1614  WAT1614    -0.4105
   4838  H1         1.5560   27.9240  -19.7270 H    1614  WAT1614     0.2052
   4839  H2         0.3130   28.7870  -19.7610 H    1614  WAT1614     0.2052
   4840  O          3.0850   26.6460  -19.4040 O.3  1615  WAT1615    -0.4105
   4841  H1         3.1250   26.3470  -18.4950 H    1615  WAT1615     0.2052
   4842  H2         3.9390   27.0470  -19.5630 H    1615  WAT1615     0.2052
   4843  O          5.0250   25.2250  -21.4360 O.3  1616  WAT1616    -0.4105
   4844  H1         4.4950   24.7340  -22.0640 H    1616  WAT1616     0.2052
   4845  H2         5.6940   25.6530  -21.9710 H    1616  WAT1616     0.2052
   4846  O         13.9230   29.6920  -21.6720 O.3  1617  WAT1617    -0.4105
   4847  H1        14.3370   29.8470  -20.8230 H    1617  WAT1617     0.2052
   4848  H2        12.9880   29.8180  -21.5100 H    1617  WAT1617     0.2052
   4849  O         14.3950   27.0320  -19.6680 O.3  1618  WAT1618    -0.4105
   4850  H1        14.9770   26.2770  -19.7560 H    1618  WAT1618     0.2052
   4851  H2        14.5720   27.5620  -20.4450 H    1618  WAT1618     0.2052
   4852  O          5.5130   22.1910  -21.3570 O.3  1619  WAT1619    -0.4105
   4853  H1         5.4180   21.5730  -22.0820 H    1619  WAT1619     0.2052
   4854  H2         4.9320   22.9180  -21.5840 H    1619  WAT1619     0.2052
   4855  O          8.2790   20.7490  -24.3240 O.3  1620  WAT1620    -0.4105
   4856  H1         7.8300   20.7710  -25.1690 H    1620  WAT1620     0.2052
   4857  H2         7.6450   20.3510  -23.7270 H    1620  WAT1620     0.2052
   4858  O         11.0210   27.3760  -22.3190 O.3  1621  WAT1621    -0.4105
   4859  H1        11.1410   26.7800  -21.5790 H    1621  WAT1621     0.2052
   4860  H2        11.8800   27.4130  -22.7390 H    1621  WAT1621     0.2052
   4861  O         13.3600   27.9290  -23.7430 O.3  1622  WAT1622    -0.4105
   4862  H1        12.8330   28.4540  -24.3460 H    1622  WAT1622     0.2052
   4863  H2        13.7030   28.5620  -23.1120 H    1622  WAT1622     0.2052
   4864  O          7.7880   23.9180  -21.0610 O.3  1623  WAT1623    -0.4105
   4865  H1         8.3780   23.6090  -20.3740 H    1623  WAT1623     0.2052
   4866  H2         6.9700   23.4460  -20.9050 H    1623  WAT1623     0.2052
   4867  O         12.6070   23.5340  -20.8280 O.3  1624  WAT1624    -0.4105
   4868  H1        11.9190   22.8730  -20.8930 H    1624  WAT1624     0.2052
   4869  H2        13.3280   23.0880  -20.3830 H    1624  WAT1624     0.2052
   4870  O          2.1530   28.2760  -25.3880 O.3  1625  WAT1625    -0.4105
   4871  H1         2.5210   28.1890  -24.5080 H    1625  WAT1625     0.2052
   4872  H2         1.5850   27.5130  -25.4870 H    1625  WAT1625     0.2052
   4873  O         16.9540   26.7450  -22.3750 O.3  1626  WAT1626    -0.4105
   4874  H1        16.7220   26.5160  -23.2750 H    1626  WAT1626     0.2052
   4875  H2        17.2140   27.6650  -22.4200 H    1626  WAT1626     0.2052
   4876  O          1.7050   25.1870  -21.4820 O.3  1627  WAT1627    -0.4105
   4877  H1         0.8110   25.1540  -21.1420 H    1627  WAT1627     0.2052
   4878  H2         2.2450   25.3860  -20.7170 H    1627  WAT1627     0.2052
   4879  O         15.3930   21.9700  -19.5970 O.3  1628  WAT1628    -0.4105
   4880  H1        16.2700   21.9790  -19.2130 H    1628  WAT1628     0.2052
   4881  H2        15.4050   21.2330  -20.2070 H    1628  WAT1628     0.2052
   4882  O         16.8390   25.8230  -28.7080 O.3  1629  WAT1629    -0.4105
   4883  H1        17.3630   25.3300  -29.3390 H    1629  WAT1629     0.2052
   4884  H2        17.4250   25.9580  -27.9630 H    1629  WAT1629     0.2052
   4885  O         17.0180   25.9070  -25.1860 O.3  1630  WAT1630    -0.4105
   4886  H1        16.0680   25.8740  -25.0710 H    1630  WAT1630     0.2052
   4887  H2        17.1990   26.8170  -25.4210 H    1630  WAT1630     0.2052
   4888  O          2.2090   19.4620  -27.1330 O.3  1631  WAT1631    -0.4105
   4889  H1         2.8570   18.9120  -27.5740 H    1631  WAT1631     0.2052
   4890  H2         2.6290   19.7160  -26.3120 H    1631  WAT1631     0.2052
   4891  O         16.1040   19.6560  -23.7760 O.3  1632  WAT1632    -0.4105
   4892  H1        16.7410   20.2700  -23.4110 H    1632  WAT1632     0.2052
   4893  H2        16.2520   19.6920  -24.7220 H    1632  WAT1632     0.2052
   4894  O          1.9620   19.6180  -24.3910 O.3  1633  WAT1633    -0.4105
   4895  H1         1.6140   20.0740  -23.6250 H    1633  WAT1633     0.2052
   4896  H2         1.6310   18.7230  -24.3090 H    1633  WAT1633     0.2052
   4897  O          9.4750   20.8090  -20.8690 O.3  1634  WAT1634    -0.4105
   4898  H1         9.4140   21.4010  -20.1190 H    1634  WAT1634     0.2052
   4899  H2        10.4150   20.7010  -21.0140 H    1634  WAT1634     0.2052
   4900  O         12.1120   20.4660  -21.2300 O.3  1635  WAT1635    -0.4105
   4901  H1        12.7260   20.7840  -21.8920 H    1635  WAT1635     0.2052
   4902  H2        12.6570   19.9810  -20.6100 H    1635  WAT1635     0.2052
   4903  O          2.6340   19.1450  -21.1160 O.3  1636  WAT1636    -0.4105
   4904  H1         3.1830   18.9640  -21.8790 H    1636  WAT1636     0.2052
   4905  H2         2.7000   18.3550  -20.5800 H    1636  WAT1636     0.2052
   4906  O         12.8530   19.0290  -24.9030 O.3  1637  WAT1637    -0.4105
   4907  H1        11.9790   19.3630  -25.1050 H    1637  WAT1637     0.2052
   4908  H2        12.7440   18.5560  -24.0780 H    1637  WAT1637     0.2052
   4909  O         13.7600   21.2360  -23.5190 O.3  1638  WAT1638    -0.4105
   4910  H1        13.4310   20.4210  -23.8980 H    1638  WAT1638     0.2052
   4911  H2        14.7080   21.1930  -23.6420 H    1638  WAT1638     0.2052
   4912  O         10.6000   19.9460  -25.9630 O.3  1639  WAT1639    -0.4105
   4913  H1         9.8180   20.4210  -25.6840 H    1639  WAT1639     0.2052
   4914  H2        10.3070   19.0410  -26.0720 H    1639  WAT1639     0.2052
   4915  O         15.1530   20.6480  -27.9190 O.3  1640  WAT1640    -0.4105
   4916  H1        15.5930   20.5930  -28.7660 H    1640  WAT1640     0.2052
   4917  H2        14.8830   21.5640  -27.8480 H    1640  WAT1640     0.2052
   4918  O         12.9880   19.0290  -29.2140 O.3  1641  WAT1641    -0.4105
   4919  H1        13.5910   19.6010  -28.7390 H    1641  WAT1641     0.2052
   4920  H2        12.2480   19.5930  -29.4360 H    1641  WAT1641     0.2052
   4921  O          6.6360   19.7930  -19.4120 O.3  1642  WAT1642    -0.4105
   4922  H1         6.3550   20.2960  -20.1760 H    1642  WAT1642     0.2052
   4923  H2         7.0180   18.9950  -19.7780 H    1642  WAT1642     0.2052
   4924  O         13.2380   19.2080  -18.8340 O.3  1643  WAT1643    -0.4105
   4925  H1        13.1240   19.5280  -17.9390 H    1643  WAT1643     0.2052
   4926  H2        14.0550   19.6100  -19.1300 H    1643  WAT1643     0.2052
   4927  O         12.1440    8.4530   26.6270 O.3  1644  WAT1644    -0.4105
   4928  H1        12.0630    7.5390   26.3560 H    1644  WAT1644     0.2052
   4929  H2        11.7300    8.9500   25.9210 H    1644  WAT1644     0.2052
   4930  O         10.2750   10.2310   28.5080 O.3  1645  WAT1645    -0.4105
   4931  H1         9.5000    9.7510   28.7980 H    1645  WAT1645     0.2052
   4932  H2        10.9270    9.5520   28.3330 H    1645  WAT1645     0.2052
   4933  O         14.2960   14.6370   27.2880 O.3  1646  WAT1646    -0.4105
   4934  H1        13.8340   13.8660   27.6160 H    1646  WAT1646     0.2052
   4935  H2        15.1090   14.6640   27.7930 H    1646  WAT1646     0.2052
   4936  O          4.2720   14.5770   29.5810 O.3  1647  WAT1647    -0.4105
   4937  H1         4.5750   13.6870   29.4020 H    1647  WAT1647     0.2052
   4938  H2         5.0170   15.1340   29.3530 H    1647  WAT1647     0.2052
   4939  O          2.7010    5.5030   23.1700 O.3  1648  WAT1648    -0.4105
   4940  H1         1.8130    5.8450   23.0680 H    1648  WAT1648     0.2052
   4941  H2         2.9850    5.3030   22.2780 H    1648  WAT1648     0.2052
   4942  O          0.6650    8.1040   29.0540 O.3  1649  WAT1649    -0.4105
   4943  H1         1.2360    7.3360   29.0540 H    1649  WAT1649     0.2052
   4944  H2         0.6650    8.4030   28.1440 H    1649  WAT1649     0.2052
   4945  O         10.5230   16.9230   26.9080 O.3  1650  WAT1650    -0.4105
   4946  H1         9.9040   17.3790   26.3370 H    1650  WAT1650     0.2052
   4947  H2        11.3780   17.0780   26.5070 H    1650  WAT1650     0.2052
   4948  O          9.7160   12.9070   28.5150 O.3  1651  WAT1651    -0.4105
   4949  H1         9.6470   11.9660   28.3540 H    1651  WAT1651     0.2052
   4950  H2        10.4780   12.9970   29.0870 H    1651  WAT1651     0.2052
   4951  O         10.7470    5.7140   28.7420 O.3  1652  WAT1652    -0.4105
   4952  H1        11.1230    4.8410   28.6290 H    1652  WAT1652     0.2052
   4953  H2        10.6490    6.0500   27.8510 H    1652  WAT1652     0.2052
   4954  O          4.8770    4.0870   24.2030 O.3  1653  WAT1653    -0.4105
   4955  H1         4.9840    4.9870   24.5100 H    1653  WAT1653     0.2052
   4956  H2         3.9670    4.0380   23.9130 H    1653  WAT1653     0.2052
   4957  O         14.5290    3.2090   25.6740 O.3  1654  WAT1654    -0.4105
   4958  H1        15.3500    2.7190   25.7170 H    1654  WAT1654     0.2052
   4959  H2        14.5630    3.7990   26.4280 H    1654  WAT1654     0.2052
   4960  O          2.5260    6.0080   29.4490 O.3  1655  WAT1655    -0.4105
   4961  H1         3.2070    6.2720   30.0670 H    1655  WAT1655     0.2052
   4962  H2         2.2110    5.1690   29.7820 H    1655  WAT1655     0.2052
   4963  O          6.7180    7.0550   28.5360 O.3  1656  WAT1656    -0.4105
   4964  H1         7.2260    7.5530   29.1760 H    1656  WAT1656     0.2052
   4965  H2         7.2500    6.2790   28.3600 H    1656  WAT1656     0.2052
   4966  O         11.3890   11.8070   24.3010 O.3  1657  WAT1657    -0.4105
   4967  H1        10.7710   12.2720   23.7380 H    1657  WAT1657     0.2052
   4968  H2        11.9010   12.5000   24.7180 H    1657  WAT1657     0.2052
   4969  O         14.7650    5.1490   28.4470 O.3  1658  WAT1658    -0.4105
   4970  H1        14.0610    5.4380   29.0280 H    1658  WAT1658     0.2052
   4971  H2        15.1270    5.9590   28.0870 H    1658  WAT1658     0.2052
   4972  O          0.7570   12.4930   21.6750 O.3  1659  WAT1659    -0.4105
   4973  H1         0.3800   12.9810   20.9440 H    1659  WAT1659     0.2052
   4974  H2         1.0150   13.1650   22.3060 H    1659  WAT1659     0.2052
   4975  O         17.8340    4.5950   28.8380 O.3  1660  WAT1660    -0.4105
   4976  H1        16.8870    4.6280   28.9700 H    1660  WAT1660     0.2052
   4977  H2        18.1590    5.4080   29.2230 H    1660  WAT1660     0.2052
   4978  O          8.3660    0.8940   27.1340 O.3  1661  WAT1661    -0.4105
   4979  H1         8.6740    0.3390   26.4170 H    1661  WAT1661     0.2052
   4980  H2         7.4360    1.0290   26.9510 H    1661  WAT1661     0.2052
   4981  O         13.9180   16.6110   29.4240 O.3  1662  WAT1662    -0.4105
   4982  H1        13.9300   16.2070   28.5570 H    1662  WAT1662     0.2052
   4983  H2        13.3650   17.3860   29.3210 H    1662  WAT1662     0.2052
   4984  O         15.2120   13.3330   24.5140 O.3  1663  WAT1663    -0.4105
   4985  H1        15.1020   12.3900   24.6380 H    1663  WAT1663     0.2052
   4986  H2        15.2090   13.6940   25.4000 H    1663  WAT1663     0.2052
   4987  O         10.7540    8.9590   23.8700 O.3  1664  WAT1664    -0.4105
   4988  H1         9.8270    8.8930   24.0990 H    1664  WAT1664     0.2052
   4989  H2        10.9070    9.8970   23.7550 H    1664  WAT1664     0.2052
   4990  O         10.7410    5.2310   20.8660 O.3  1665  WAT1665    -0.4105
   4991  H1         9.8010    5.3920   20.9520 H    1665  WAT1665     0.2052
   4992  H2        11.0590    5.9490   20.3200 H    1665  WAT1665     0.2052
   4993  O         14.7840   10.5210   24.3730 O.3  1666  WAT1666    -0.4105
   4994  H1        14.1650   10.1830   23.7260 H    1666  WAT1666     0.2052
   4995  H2        14.7660    9.8770   25.0810 H    1666  WAT1666     0.2052
   4996  O          6.3600    9.4860   26.6520 O.3  1667  WAT1667    -0.4105
   4997  H1         5.9560    8.7730   26.1560 H    1667  WAT1667     0.2052
   4998  H2         6.4460    9.1410   27.5410 H    1667  WAT1667     0.2052
   4999  O          6.8280   13.1720   28.8160 O.3  1668  WAT1668    -0.4105
   5000  H1         6.5310   12.5670   28.1360 H    1668  WAT1668     0.2052
   5001  H2         7.7780   13.2100   28.7050 H    1668  WAT1668     0.2052
   5002  O         12.9600    9.7600   21.3810 O.3  1669  WAT1669    -0.4105
   5003  H1        13.4000    8.9220   21.2340 H    1669  WAT1669     0.2052
   5004  H2        13.6730   10.3930   21.4670 H    1669  WAT1669     0.2052
   5005  O         11.0700   14.6990   25.3490 O.3  1670  WAT1670    -0.4105
   5006  H1        11.5100   15.4420   24.9340 H    1670  WAT1670     0.2052
   5007  H2        11.0090   14.9420   26.2730 H    1670  WAT1670     0.2052
   5008  O         16.5420    1.0140   19.6950 O.3  1671  WAT1671    -0.4105
   5009  H1        16.2290    1.1070   20.5950 H    1671  WAT1671     0.2052
   5010  H2        17.3030    1.5920   19.6440 H    1671  WAT1671     0.2052
   5011  O          3.0600    8.3800   24.1520 O.3  1672  WAT1672    -0.4105
   5012  H1         2.9400    9.1060   23.5410 H    1672  WAT1672     0.2052
   5013  H2         2.7500    7.6100   23.6750 H    1672  WAT1672     0.2052
   5014  O          1.9440   13.2520   26.3700 O.3  1673  WAT1673    -0.4105
   5015  H1         1.5360   13.3930   25.5150 H    1673  WAT1673     0.2052
   5016  H2         2.8350   12.9680   26.1670 H    1673  WAT1673     0.2052
   5017  O         13.7370   17.6860   22.7050 O.3  1674  WAT1674    -0.4105
   5018  H1        13.5770   17.3970   23.6030 H    1674  WAT1674     0.2052
   5019  H2        13.5720   16.9100   22.1700 H    1674  WAT1674     0.2052
   5020  O          6.2160   17.4660   24.4820 O.3  1675  WAT1675    -0.4105
   5021  H1         6.0400   16.5500   24.2690 H    1675  WAT1675     0.2052
   5022  H2         5.3610   17.8250   24.7220 H    1675  WAT1675     0.2052
   5023  O         13.4400   15.1950   21.2650 O.3  1676  WAT1676    -0.4105
   5024  H1        12.7460   15.1930   20.6050 H    1676  WAT1676     0.2052
   5025  H2        14.1820   14.7710   20.8340 H    1676  WAT1676     0.2052
   5026  O         13.0050   16.8210   25.3400 O.3  1677  WAT1677    -0.4105
   5027  H1        13.4600   16.0400   25.6530 H    1677  WAT1677     0.2052
   5028  H2        13.3440   17.5320   25.8840 H    1677  WAT1677     0.2052
   5029  O          5.5270    1.7240   27.5350 O.3  1678  WAT1678    -0.4105
   5030  H1         5.0830    2.5050   27.2030 H    1678  WAT1678     0.2052
   5031  H2         6.0850    2.0470   28.2420 H    1678  WAT1678     0.2052
   5032  O          8.6430    1.3450   22.4150 O.3  1679  WAT1679    -0.4105
   5033  H1         8.0180    1.3410   23.1410 H    1679  WAT1679     0.2052
   5034  H2         8.5560    0.4780   22.0190 H    1679  WAT1679     0.2052
   5035  O          7.5640    2.2680   29.3940 O.3  1680  WAT1680    -0.4105
   5036  H1         7.8620    3.1750   29.3130 H    1680  WAT1680     0.2052
   5037  H2         8.1130    1.7800   28.7800 H    1680  WAT1680     0.2052
   5038  O          5.3180    6.8470   25.2630 O.3  1681  WAT1681    -0.4105
   5039  H1         5.0920    6.6310   26.1680 H    1681  WAT1681     0.2052
   5040  H2         4.5370    7.2800   24.9170 H    1681  WAT1681     0.2052
   5041  O         12.5480    6.8530   23.8620 O.3  1682  WAT1682    -0.4105
   5042  H1        11.9490    7.5770   23.6780 H    1682  WAT1682     0.2052
   5043  H2        13.0960    6.7910   23.0800 H    1682  WAT1682     0.2052
   5044  O         11.1540    5.4900   25.8920 O.3  1683  WAT1683    -0.4105
   5045  H1        11.5470    5.8070   25.0790 H    1683  WAT1683     0.2052
   5046  H2        11.5160    4.6110   26.0070 H    1683  WAT1683     0.2052
   5047  O          0.1910    2.0800   28.1150 O.3  1684  WAT1684    -0.4105
   5048  H1        -0.0980    2.6500   28.8280 H    1684  WAT1684     0.2052
   5049  H2         0.9350    1.6000   28.4780 H    1684  WAT1684     0.2052
   5050  O          0.3780    6.0220   19.3260 O.3  1685  WAT1685    -0.4105
   5051  H1         0.2950    6.9650   19.4670 H    1685  WAT1685     0.2052
   5052  H2         0.0260    5.8790   18.4470 H    1685  WAT1685     0.2052
   5053  O          8.1780    4.7560   28.3930 O.3  1686  WAT1686    -0.4105
   5054  H1         8.1810    4.3150   27.5430 H    1686  WAT1686     0.2052
   5055  H2         9.0730    5.0770   28.5000 H    1686  WAT1686     0.2052
   5056  O          4.0280    4.6380   27.3520 O.3  1687  WAT1687    -0.4105
   5057  H1         3.6880    5.1160   28.1090 H    1687  WAT1687     0.2052
   5058  H2         3.2660    4.1850   26.9920 H    1687  WAT1687     0.2052
   5059  O          8.2400    5.7570   21.3830 O.3  1688  WAT1688    -0.4105
   5060  H1         8.3610    5.7160   22.3320 H    1688  WAT1688     0.2052
   5061  H2         7.8540    6.6190   21.2280 H    1688  WAT1688     0.2052
   5062  O          7.2520    8.0670   20.7820 O.3  1689  WAT1689    -0.4105
   5063  H1         6.6830    7.6190   20.1550 H    1689  WAT1689     0.2052
   5064  H2         7.9610    8.4260   20.2480 H    1689  WAT1689     0.2052
   5065  O          1.3420    3.5600   26.2680 O.3  1690  WAT1690    -0.4105
   5066  H1         1.0570    3.1960   27.1060 H    1690  WAT1690     0.2052
   5067  H2         1.2800    2.8280   25.6550 H    1690  WAT1690     0.2052
   5068  O          4.7970   12.0630   23.0540 O.3  1691  WAT1691    -0.4105
   5069  H1         4.0230   11.5230   22.8940 H    1691  WAT1691     0.2052
   5070  H2         5.5260   11.5430   22.7160 H    1691  WAT1691     0.2052
   5071  O         15.5550   11.0590   28.8470 O.3  1692  WAT1692    -0.4105
   5072  H1        16.2750   11.5550   28.4570 H    1692  WAT1692     0.2052
   5073  H2        15.3540   10.3810   28.2020 H    1692  WAT1692     0.2052
   5074  O         11.0160    2.4530   22.9900 O.3  1693  WAT1693    -0.4105
   5075  H1        10.2030    1.9540   22.9140 H    1693  WAT1693     0.2052
   5076  H2        10.8230    3.2930   22.5730 H    1693  WAT1693     0.2052
   5077  O         13.7310    6.8250   21.2860 O.3  1694  WAT1694    -0.4105
   5078  H1        14.6190    7.1370   21.1110 H    1694  WAT1694     0.2052
   5079  H2        13.7020    5.9520   20.8940 H    1694  WAT1694     0.2052
   5080  O          4.8400   11.7310   26.6920 O.3  1695  WAT1695    -0.4105
   5081  H1         5.3580   10.9280   26.6380 H    1695  WAT1695     0.2052
   5082  H2         4.3890   11.6690   27.5340 H    1695  WAT1695     0.2052
   5083  O          9.7270   12.9970   21.9650 O.3  1696  WAT1696    -0.4105
   5084  H1        10.0690   13.7420   21.4690 H    1696  WAT1696     0.2052
   5085  H2         8.8980   13.3110   22.3270 H    1696  WAT1696     0.2052
   5086  O         16.0030    8.1360   20.7540 O.3  1697  WAT1697    -0.4105
   5087  H1        15.9190    8.5680   19.9040 H    1697  WAT1697     0.2052
   5088  H2        16.7220    8.5960   21.1870 H    1697  WAT1697     0.2052
   5089  O         17.0310   14.9900   23.4820 O.3  1698  WAT1698    -0.4105
   5090  H1        16.3890   14.3360   23.7570 H    1698  WAT1698     0.2052
   5091  H2        16.6440   15.3960   22.7060 H    1698  WAT1698     0.2052
   5092  O         12.6100   12.3190   27.3290 O.3  1699  WAT1699    -0.4105
   5093  H1        12.9620   11.7220   26.6700 H    1699  WAT1699     0.2052
   5094  H2        11.7260   11.9930   27.5000 H    1699  WAT1699     0.2052
   5095  O          8.6960   13.0790   24.7360 O.3  1700  WAT1700    -0.4105
   5096  H1         9.3830   13.6260   25.1170 H    1700  WAT1700     0.2052
   5097  H2         7.9100   13.6230   24.7710 H    1700  WAT1700     0.2052
   5098  O          0.8360    8.6960   20.2280 O.3  1701  WAT1701    -0.4105
   5099  H1         1.7050    8.9790   20.5120 H    1701  WAT1701     0.2052
   5100  H2         0.3450    9.5100   20.1130 H    1701  WAT1701     0.2052
   5101  O          7.9990   10.0830   24.3490 O.3  1702  WAT1702    -0.4105
   5102  H1         8.4550   10.8940   24.5750 H    1702  WAT1702     0.2052
   5103  H2         7.6480    9.7660   25.1810 H    1702  WAT1702     0.2052
   5104  O          3.9000    0.4270   24.8210 O.3  1703  WAT1703    -0.4105
   5105  H1         3.7720    0.4190   25.7700 H    1703  WAT1703     0.2052
   5106  H2         3.0760    0.7650   24.4700 H    1703  WAT1703     0.2052
   5107  O         15.4210   13.8820   20.0200 O.3  1704  WAT1704    -0.4105
   5108  H1        15.1950   13.1650   20.6120 H    1704  WAT1704     0.2052
   5109  H2        15.0310   13.6330   19.1820 H    1704  WAT1704     0.2052
   5110  O          1.2030   17.9090   20.7940 O.3  1705  WAT1705    -0.4105
   5111  H1         1.5620   18.5080   20.1400 H    1705  WAT1705     0.2052
   5112  H2         1.0620   18.4550   21.5680 H    1705  WAT1705     0.2052
   5113  O         15.0030   11.7990   21.6810 O.3  1706  WAT1706    -0.4105
   5114  H1        14.7150   12.2610   22.4690 H    1706  WAT1706     0.2052
   5115  H2        15.7980   11.3390   21.9500 H    1706  WAT1706     0.2052
   5116  O          7.2200   15.2920   21.6120 O.3  1707  WAT1707    -0.4105
   5117  H1         7.2110   16.0250   20.9960 H    1707  WAT1707     0.2052
   5118  H2         6.2990   15.0450   21.7040 H    1707  WAT1707     0.2052
   5119  O          2.8200   10.5130   22.3560 O.3  1708  WAT1708    -0.4105
   5120  H1         2.2130   11.2530   22.3660 H    1708  WAT1708     0.2052
   5121  H2         3.2950   10.6030   21.5300 H    1708  WAT1708     0.2052
   5122  O         15.7600    3.6340   22.8410 O.3  1709  WAT1709    -0.4105
   5123  H1        15.1310    3.7390   22.1270 H    1709  WAT1709     0.2052
   5124  H2        15.2650    3.8540   23.6300 H    1709  WAT1709     0.2052
   5125  O         10.2050   15.3550   20.2740 O.3  1710  WAT1710    -0.4105
   5126  H1        10.3070   15.1510   19.3440 H    1710  WAT1710     0.2052
   5127  H2         9.3060   15.1010   20.4790 H    1710  WAT1710     0.2052
   5128  O          7.7280    5.9130   24.2570 O.3  1711  WAT1711    -0.4105
   5129  H1         7.0200    6.3810   24.6980 H    1711  WAT1711     0.2052
   5130  H2         8.0130    5.2550   24.8910 H    1711  WAT1711     0.2052
   5131  O         11.7600    2.6380   25.6960 O.3  1712  WAT1712    -0.4105
   5132  H1        11.6360    2.6560   24.7470 H    1712  WAT1712     0.2052
   5133  H2        12.7080    2.6860   25.8160 H    1712  WAT1712     0.2052
   5134  O          8.8470   17.8730   24.9690 O.3  1713  WAT1713    -0.4105
   5135  H1         9.1010   17.8360   24.0470 H    1713  WAT1713     0.2052
   5136  H2         7.8990   17.7470   24.9620 H    1713  WAT1713     0.2052
   5137  O          5.9320    4.2210   21.6320 O.3  1714  WAT1714    -0.4105
   5138  H1         6.7810    4.6580   21.5660 H    1714  WAT1714     0.2052
   5139  H2         5.5650    4.5330   22.4590 H    1714  WAT1714     0.2052
   5140  O         14.8530    8.7930   26.5450 O.3  1715  WAT1715    -0.4105
   5141  H1        13.9120    8.8080   26.7200 H    1715  WAT1715     0.2052
   5142  H2        15.1670    8.0060   26.9910 H    1715  WAT1715     0.2052
   5143  O          4.8310   10.4750   20.1050 O.3  1716  WAT1716    -0.4105
   5144  H1         5.5970   10.3630   20.6680 H    1716  WAT1716     0.2052
   5145  H2         4.9080    9.7780   19.4530 H    1716  WAT1716     0.2052
   5146  O          3.5250    7.9070   20.7890 O.3  1717  WAT1717    -0.4105
   5147  H1         3.6060    6.9600   20.9000 H    1717  WAT1717     0.2052
   5148  H2         4.4170    8.2380   20.8950 H    1717  WAT1717     0.2052
   5149  O         16.8550   15.9630   28.2200 O.3  1718  WAT1718    -0.4105
   5150  H1        16.9800   16.7870   28.6930 H    1718  WAT1718     0.2052
   5151  H2        17.7220   15.7530   27.8730 H    1718  WAT1718     0.2052
   5152  O          4.3270   18.0570   27.8920 O.3  1719  WAT1719    -0.4105
   5153  H1         5.0630   17.5080   28.1630 H    1719  WAT1719     0.2052
   5154  H2         4.7110   18.9220   27.7530 H    1719  WAT1719     0.2052
   5155  O          1.2110   14.1240   23.7660 O.3  1720  WAT1720    -0.4105
   5156  H1         0.2850   14.3660   23.7570 H    1720  WAT1720     0.2052
   5157  H2         1.6770   14.9510   23.6450 H    1720  WAT1720     0.2052
   5158  O          7.4370   17.2300   19.7150 O.3  1721  WAT1721    -0.4105
   5159  H1         8.2300   17.5190   19.2630 H    1721  WAT1721     0.2052
   5160  H2         6.9180   16.7990   19.0360 H    1721  WAT1721     0.2052
   5161  O         16.4900   16.4570   21.1380 O.3  1722  WAT1722    -0.4105
   5162  H1        16.2040   16.0430   20.3240 H    1722  WAT1722     0.2052
   5163  H2        16.2920   17.3850   21.0180 H    1722  WAT1722     0.2052
   5164  O          7.9550   12.4500   19.5790 O.3  1723  WAT1723    -0.4105
   5165  H1         7.8500   11.8350   20.3050 H    1723  WAT1723     0.2052
   5166  H2         7.7870   11.9270   18.7950 H    1723  WAT1723     0.2052
   5167  O         11.1950   11.5120   20.1830 O.3  1724  WAT1724    -0.4105
   5168  H1        10.6460   11.9590   20.8270 H    1724  WAT1724     0.2052
   5169  H2        11.8170   11.0070   20.7070 H    1724  WAT1724     0.2052
   5170  O          6.8630   10.4710   22.0790 O.3  1725  WAT1725    -0.4105
   5171  H1         7.2840   10.3050   22.9230 H    1725  WAT1725     0.2052
   5172  H2         6.9880    9.6610   21.5850 H    1725  WAT1725     0.2052
   5173  O          9.3750    9.4950   19.3270 O.3  1726  WAT1726    -0.4105
   5174  H1         9.8960    8.7800   18.9610 H    1726  WAT1726     0.2052
   5175  H2        10.0220   10.1330   19.6270 H    1726  WAT1726     0.2052
   5176  O          5.7590    6.5440   19.0250 O.3  1727  WAT1727    -0.4105
   5177  H1         5.5570    5.6810   19.3870 H    1727  WAT1727     0.2052
   5178  H2         5.5880    6.4580   18.0870 H    1727  WAT1727     0.2052
   5179  O         13.2370    1.3550   21.5540 O.3  1728  WAT1728    -0.4105
   5180  H1        13.5180    0.5120   21.9100 H    1728  WAT1728     0.2052
   5181  H2        12.4640    1.5880   22.0680 H    1728  WAT1728     0.2052
   5182  O          4.5570    3.6440   19.0130 O.3  1729  WAT1729    -0.4105
   5183  H1         4.8590    3.6510   18.1050 H    1729  WAT1729     0.2052
   5184  H2         5.2960    3.2940   19.5100 H    1729  WAT1729     0.2052
   5185  O          7.7750    2.5880   19.9990 O.3  1730  WAT1730    -0.4105
   5186  H1         7.4270    1.9100   19.4190 H    1730  WAT1730     0.2052
   5187  H2         7.9770    2.1270   20.8130 H    1730  WAT1730     0.2052
   5188  O          9.9400   17.5760   21.6170 O.3  1731  WAT1731    -0.4105
   5189  H1        10.8350   17.9140   21.6390 H    1731  WAT1731     0.2052
   5190  H2         9.9720   16.8540   20.9900 H    1731  WAT1731     0.2052
   5191  O          3.5800   12.9490   19.8460 O.3  1732  WAT1732    -0.4105
   5192  H1         4.0170   13.4920   20.5020 H    1732  WAT1732     0.2052
   5193  H2         4.0650   12.1230   19.8560 H    1732  WAT1732     0.2052
   5194  O          0.7940   15.7380   27.2980 O.3  1733  WAT1733    -0.4105
   5195  H1         1.1250   14.8700   27.0660 H    1733  WAT1733     0.2052
   5196  H2         1.2230   15.9430   28.1290 H    1733  WAT1733     0.2052
   5197  O          5.3910   14.0680   24.9580 O.3  1734  WAT1734    -0.4105
   5198  H1         5.0900   13.9450   25.8590 H    1734  WAT1734     0.2052
   5199  H2         5.2840   13.2090   24.5500 H    1734  WAT1734     0.2052
   5200  O         18.1600   13.8480   19.6610 O.3  1735  WAT1735    -0.4105
   5201  H1        17.3290   13.9160   20.1320 H    1735  WAT1735     0.2052
   5202  H2        18.3370   14.7390   19.3580 H    1735  WAT1735     0.2052
   5203  O         17.6150   10.5930   22.1640 O.3  1736  WAT1736    -0.4105
   5204  H1        18.3770   11.1630   22.2700 H    1736  WAT1736     0.2052
   5205  H2        17.6310   10.0260   22.9350 H    1736  WAT1736     0.2052
   5206  O          1.1160    9.1170   26.3950 O.3  1737  WAT1737    -0.4105
   5207  H1         0.4610    8.8480   25.7510 H    1737  WAT1737     0.2052
   5208  H2         1.9540    9.0070   25.9450 H    1737  WAT1737     0.2052
   5209  O         18.6210   11.4480   27.0090 O.3  1738  WAT1738    -0.4105
   5210  H1        18.9920   10.6650   26.6020 H    1738  WAT1738     0.2052
   5211  H2        19.2620   12.1370   26.8300 H    1738  WAT1738     0.2052
   5212  O         17.6670   10.8860   19.3220 O.3  1739  WAT1739    -0.4105
   5213  H1        17.9420   11.7940   19.1940 H    1739  WAT1739     0.2052
   5214  H2        17.4780   10.8230   20.2580 H    1739  WAT1739     0.2052
   5215  O         14.0650    3.9110   20.6170 O.3  1740  WAT1740    -0.4105
   5216  H1        14.4830    3.7240   19.7770 H    1740  WAT1740     0.2052
   5217  H2        13.7580    3.0590   20.9270 H    1740  WAT1740     0.2052
   5218  O         17.5640    8.8230   24.3150 O.3  1741  WAT1741    -0.4105
   5219  H1        17.1880    8.0560   23.8830 H    1741  WAT1741     0.2052
   5220  H2        16.8340    9.2050   24.8020 H    1741  WAT1741     0.2052
   5221  O          0.3300    6.3270   22.3380 O.3  1742  WAT1742    -0.4105
   5222  H1        -0.5740    6.5900   22.1630 H    1742  WAT1742     0.2052
   5223  H2         0.8140    6.5980   21.5580 H    1742  WAT1742     0.2052
   5224  O         16.8390    7.0490   27.6150 O.3  1743  WAT1743    -0.4105
   5225  H1        17.3630    6.5550   26.9840 H    1743  WAT1743     0.2052
   5226  H2        17.4250    7.1840   28.3600 H    1743  WAT1743     0.2052
   5227  O          2.8720    5.3830   20.2470 O.3  1744  WAT1744    -0.4105
   5228  H1         3.5820    4.9610   19.7620 H    1744  WAT1744     0.2052
   5229  H2         2.1560    5.4510   19.6150 H    1744  WAT1744     0.2052
   5230  O          2.5200    1.4370   19.2870 O.3  1745  WAT1745    -0.4105
   5231  H1         3.2430    1.9780   19.6060 H    1745  WAT1745     0.2052
   5232  H2         2.7920    1.1630   18.4120 H    1745  WAT1745     0.2052
   5233  O         16.3290    6.3060   23.5550 O.3  1746  WAT1746    -0.4105
   5234  H1        16.8250    6.0730   24.3390 H    1746  WAT1746     0.2052
   5235  H2        16.1310    5.4670   23.1380 H    1746  WAT1746     0.2052
   5236  O          2.2090    0.6880   29.1900 O.3  1747  WAT1747    -0.4105
   5237  H1         2.8570    0.1370   28.7490 H    1747  WAT1747     0.2052
   5238  H2         2.6290    0.9420   30.0110 H    1747  WAT1747     0.2052
   5239  O         17.7580    4.9420   26.0880 O.3  1748  WAT1748    -0.4105
   5240  H1        17.6480    4.7880   27.0270 H    1748  WAT1748     0.2052
   5241  H2        18.5180    4.4140   25.8460 H    1748  WAT1748     0.2052
   5242  O         18.6470    2.7730   19.3290 O.3  1749  WAT1749    -0.4105
   5243  H1        19.5720    2.6410   19.1210 H    1749  WAT1749     0.2052
   5244  H2        18.6240    2.8520   20.2830 H    1749  WAT1749     0.2052
   5245  O         18.7210    3.5440   21.9550 O.3  1750  WAT1750    -0.4105
   5246  H1        17.9260    3.4790   22.4840 H    1750  WAT1750     0.2052
   5247  H2        18.9250    4.4790   21.9430 H    1750  WAT1750     0.2052
   5248  O         15.6620   17.5830   25.9480 O.3  1751  WAT1751    -0.4105
   5249  H1        16.2580   17.2620   25.2720 H    1751  WAT1751     0.2052
   5250  H2        15.9200   17.1110   26.7400 H    1751  WAT1751     0.2052
   5251  O         16.2140   18.2330   29.7780 O.3  1752  WAT1752    -0.4105
   5252  H1        15.7540   18.9850   29.4040 H    1752  WAT1752     0.2052
   5253  H2        15.5850   17.5140   29.7200 H    1752  WAT1752     0.2052
   5254  O          6.6430   16.5420   28.9530 O.3  1753  WAT1753    -0.4105
   5255  H1         7.1600   15.9300   28.4280 H    1753  WAT1753     0.2052
   5256  H2         7.2930   17.0450   29.4440 H    1753  WAT1753     0.2052
   5257  O         15.1530    1.8740   28.4040 O.3  1754  WAT1754    -0.4105
   5258  H1        15.5930    1.8180   27.5570 H    1754  WAT1754     0.2052
   5259  H2        14.8830    2.7900   28.4760 H    1754  WAT1754     0.2052
   5260  O         17.0160    1.5050   26.4150 O.3  1755  WAT1755    -0.4105
   5261  H1        16.9550    0.5620   26.2680 H    1755  WAT1755     0.2052
   5262  H2        17.7960    1.6130   26.9610 H    1755  WAT1755     0.2052
   5263  O          1.3220   17.6450   25.3780 O.3  1756  WAT1756    -0.4105
   5264  H1         1.1540   17.0120   26.0760 H    1756  WAT1756     0.2052
   5265  H2         0.4550   17.8510   25.0270 H    1756  WAT1756     0.2052
   5266  O          1.9440    1.4760   22.8810 O.3  1757  WAT1757    -0.4105
   5267  H1         2.7020    1.5890   22.3070 H    1757  WAT1757     0.2052
   5268  H2         1.4820    2.3130   22.8350 H    1757  WAT1757     0.2052
   5269  O          8.4860    3.5900   25.8710 O.3  1758  WAT1758    -0.4105
   5270  H1         7.6730    3.2160   25.5310 H    1758  WAT1758     0.2052
   5271  H2         8.9900    2.8350   26.1730 H    1758  WAT1758     0.2052
   5272  O         12.9880    0.2550   27.1090 O.3  1759  WAT1759    -0.4105
   5273  H1        13.5910    0.8270   27.5840 H    1759  WAT1759     0.2052
   5274  H2        12.2480    0.8180   26.8870 H    1759  WAT1759     0.2052
   5275  O         16.1320    0.6570   22.3840 O.3  1760  WAT1760    -0.4105
   5276  H1        16.3270    1.5550   22.6500 H    1760  WAT1760     0.2052
   5277  H2        15.3450    0.4250   22.8770 H    1760  WAT1760     0.2052
   5278  O          2.9280   16.3380   22.8230 O.3  1761  WAT1761    -0.4105
   5279  H1         2.4030   16.7190   22.1190 H    1761  WAT1761     0.2052
   5280  H2         2.8520   16.9630   23.5440 H    1761  WAT1761     0.2052
   5281  O          4.3170    2.0030   21.4210 O.3  1762  WAT1762    -0.4105
   5282  H1         4.8460    1.2160   21.2920 H    1762  WAT1762     0.2052
   5283  H2         4.9500    2.6820   21.6550 H    1762  WAT1762     0.2052
   5284  O          6.5110    1.7400   24.4760 O.3  1763  WAT1763    -0.4105
   5285  H1         5.8810    1.0390   24.6430 H    1763  WAT1763     0.2052
   5286  H2         5.9710    2.5010   24.2590 H    1763  WAT1763     0.2052
   5287  O         17.6840   17.8970   24.1440 O.3  1764  WAT1764    -0.4105
   5288  H1        17.8600   17.2110   23.5000 H    1764  WAT1764     0.2052
   5289  H2        16.9870   18.4210   23.7520 H    1764  WAT1764     0.2052
   5290  O          5.5270   18.2860   21.6980 O.3  1765  WAT1765    -0.4105
   5291  H1         6.2590   18.0020   21.1500 H    1765  WAT1765     0.2052
   5292  H2         5.7870   18.0480   22.5880 H    1765  WAT1765     0.2052
   5293  O          4.6890   14.4030   21.7020 O.3  1766  WAT1766    -0.4105
   5294  H1         4.0600   14.8710   22.2510 H    1766  WAT1766     0.2052
   5295  H2         4.8030   13.5580   22.1370 H    1766  WAT1766     0.2052
   5296  O         12.1440    8.4530    7.8520 O.3  1767  WAT1767    -0.4105
   5297  H1        12.0630    7.5390    7.5820 H    1767  WAT1767     0.2052
   5298  H2        11.7300    8.9500    7.1460 H    1767  WAT1767     0.2052
   5299  O         10.2750   10.2310    9.7330 O.3  1768  WAT1768    -0.4105
   5300  H1         9.5000    9.7510   10.0230 H    1768  WAT1768     0.2052
   5301  H2        10.9270    9.5520    9.5590 H    1768  WAT1768     0.2052
   5302  O          4.2920   10.5430   10.6110 O.3  1769  WAT1769    -0.4105
   5303  H1         3.4610   10.2880   11.0110 H    1769  WAT1769     0.2052
   5304  H2         4.9000   10.6140   11.3470 H    1769  WAT1769     0.2052
   5305  O         14.2960   14.6370    8.5130 O.3  1770  WAT1770    -0.4105
   5306  H1        13.8340   13.8660    8.8420 H    1770  WAT1770     0.2052
   5307  H2        15.1090   14.6640    9.0190 H    1770  WAT1770     0.2052
   5308  O          4.2720   14.5770   10.8070 O.3  1771  WAT1771    -0.4105
   5309  H1         4.5750   13.6870   10.6280 H    1771  WAT1771     0.2052
   5310  H2         5.0170   15.1340   10.5790 H    1771  WAT1771     0.2052
   5311  O          2.7010    5.5030    4.3950 O.3  1772  WAT1772    -0.4105
   5312  H1         1.8130    5.8450    4.2930 H    1772  WAT1772     0.2052
   5313  H2         2.9850    5.3030    3.5030 H    1772  WAT1772     0.2052
   5314  O          0.6650    8.1040   10.2790 O.3  1773  WAT1773    -0.4105
   5315  H1         1.2360    7.3360   10.2800 H    1773  WAT1773     0.2052
   5316  H2         0.6650    8.4030    9.3700 H    1773  WAT1773     0.2052
   5317  O         10.5230   16.9230    8.1340 O.3  1774  WAT1774    -0.4105
   5318  H1         9.9040   17.3790    7.5630 H    1774  WAT1774     0.2052
   5319  H2        11.3780   17.0780    7.7330 H    1774  WAT1774     0.2052
   5320  O          9.7160   12.9070    9.7400 O.3  1775  WAT1775    -0.4105
   5321  H1         9.6470   11.9660    9.5790 H    1775  WAT1775     0.2052
   5322  H2        10.4780   12.9970   10.3130 H    1775  WAT1775     0.2052
   5323  O          1.9070    3.5120   12.0660 O.3  1776  WAT1776    -0.4105
   5324  H1         1.7270    2.6150   12.3460 H    1776  WAT1776     0.2052
   5325  H2         1.5050    4.0600   12.7410 H    1776  WAT1776     0.2052
   5326  O         10.7470    5.7140    9.9670 O.3  1777  WAT1777    -0.4105
   5327  H1        11.1230    4.8410    9.8550 H    1777  WAT1777     0.2052
   5328  H2        10.6490    6.0500    9.0760 H    1777  WAT1777     0.2052
   5329  O          4.8770    4.0870    5.4290 O.3  1778  WAT1778    -0.4105
   5330  H1         4.9840    4.9870    5.7360 H    1778  WAT1778     0.2052
   5331  H2         3.9670    4.0380    5.1380 H    1778  WAT1778     0.2052
   5332  O         14.5290    3.2090    6.9000 O.3  1779  WAT1779    -0.4105
   5333  H1        15.3500    2.7190    6.9430 H    1779  WAT1779     0.2052
   5334  H2        14.5630    3.7990    7.6530 H    1779  WAT1779     0.2052
   5335  O          2.5260    6.0080   10.6740 O.3  1780  WAT1780    -0.4105
   5336  H1         3.2070    6.2720   11.2930 H    1780  WAT1780     0.2052
   5337  H2         2.2110    5.1690   11.0080 H    1780  WAT1780     0.2052
   5338  O          6.7180    7.0550    9.7620 O.3  1781  WAT1781    -0.4105
   5339  H1         7.2260    7.5530   10.4020 H    1781  WAT1781     0.2052
   5340  H2         7.2500    6.2790    9.5850 H    1781  WAT1781     0.2052
   5341  O         18.8190    5.2260   13.4640 O.3  1782  WAT1782    -0.4105
   5342  H1        18.1140    5.6140   12.9460 H    1782  WAT1782     0.2052
   5343  H2        19.0850    5.9210   14.0670 H    1782  WAT1782     0.2052
   5344  O          5.0020    1.6950   14.0280 O.3  1783  WAT1783    -0.4105
   5345  H1         5.0040    2.2120   13.2220 H    1783  WAT1783     0.2052
   5346  H2         4.1720    1.2180   14.0050 H    1783  WAT1783     0.2052
   5347  O         11.3890   11.8070    5.5270 O.3  1784  WAT1784    -0.4105
   5348  H1        10.7710   12.2720    4.9630 H    1784  WAT1784     0.2052
   5349  H2        11.9010   12.5000    5.9440 H    1784  WAT1784     0.2052
   5350  O          6.2520   11.3350   12.2050 O.3  1785  WAT1785    -0.4105
   5351  H1         5.9190   11.9610   12.8470 H    1785  WAT1785     0.2052
   5352  H2         6.4290   11.8610   11.4250 H    1785  WAT1785     0.2052
   5353  O         14.7650    5.1490    9.6730 O.3  1786  WAT1786    -0.4105
   5354  H1        14.0610    5.4380   10.2530 H    1786  WAT1786     0.2052
   5355  H2        15.1270    5.9590    9.3130 H    1786  WAT1786     0.2052
   5356  O          4.6830    3.4060   12.0350 O.3  1787  WAT1787    -0.4105
   5357  H1         5.0250    4.2500   11.7400 H    1787  WAT1787     0.2052
   5358  H2         3.7450    3.5540   12.1510 H    1787  WAT1787     0.2052
   5359  O          5.4640   13.3030   14.0200 O.3  1788  WAT1788    -0.4105
   5360  H1         6.0810   13.9780   13.7390 H    1788  WAT1788     0.2052
   5361  H2         4.6030   13.7110   13.9290 H    1788  WAT1788     0.2052
   5362  O          0.7570   12.4930    2.9010 O.3  1789  WAT1789    -0.4105
   5363  H1         0.3800   12.9810    2.1690 H    1789  WAT1789     0.2052
   5364  H2         1.0150   13.1650    3.5310 H    1789  WAT1789     0.2052
   5365  O         16.3820   14.7670   11.9360 O.3  1790  WAT1790    -0.4105
   5366  H1        15.6980   15.4360   11.9270 H    1790  WAT1790     0.2052
   5367  H2        16.9210   14.9650   11.1700 H    1790  WAT1790     0.2052
   5368  O         17.8340    4.5950   10.0640 O.3  1791  WAT1791    -0.4105
   5369  H1        16.8870    4.6280   10.1950 H    1791  WAT1791     0.2052
   5370  H2        18.1590    5.4080   10.4490 H    1791  WAT1791     0.2052
   5371  O          8.3660    0.8940    8.3590 O.3  1792  WAT1792    -0.4105
   5372  H1         8.6740    0.3390    7.6430 H    1792  WAT1792     0.2052
   5373  H2         7.4360    1.0290    8.1770 H    1792  WAT1792     0.2052
   5374  O         13.9180   16.6110   10.6500 O.3  1793  WAT1793    -0.4105
   5375  H1        13.9300   16.2070    9.7820 H    1793  WAT1793     0.2052
   5376  H2        13.3650   17.3860   10.5460 H    1793  WAT1793     0.2052
   5377  O         15.2120   13.3330    5.7390 O.3  1794  WAT1794    -0.4105
   5378  H1        15.1020   12.3900    5.8640 H    1794  WAT1794     0.2052
   5379  H2        15.2090   13.6940    6.6250 H    1794  WAT1794     0.2052
   5380  O         13.3160   11.5140   11.9780 O.3  1795  WAT1795    -0.4105
   5381  H1        13.7330   11.3000   11.1440 H    1795  WAT1795     0.2052
   5382  H2        14.0400   11.7710   12.5490 H    1795  WAT1795     0.2052
   5383  O         10.7540    8.9590    5.0950 O.3  1796  WAT1796    -0.4105
   5384  H1         9.8270    8.8930    5.3240 H    1796  WAT1796     0.2052
   5385  H2        10.9070    9.8970    4.9810 H    1796  WAT1796     0.2052
   5386  O         10.7410    5.2310    2.0920 O.3  1797  WAT1797    -0.4105
   5387  H1         9.8010    5.3920    2.1770 H    1797  WAT1797     0.2052
   5388  H2        11.0590    5.9490    1.5460 H    1797  WAT1797     0.2052
   5389  O         17.2620    9.9130   12.0700 O.3  1798  WAT1798    -0.4105
   5390  H1        16.4340    9.9820   11.5950 H    1798  WAT1798     0.2052
   5391  H2        17.8570   10.4980   11.6020 H    1798  WAT1798     0.2052
   5392  O         14.7840   10.5210    5.5990 O.3  1799  WAT1799    -0.4105
   5393  H1        14.1650   10.1830    4.9520 H    1799  WAT1799     0.2052
   5394  H2        14.7660    9.8770    6.3070 H    1799  WAT1799     0.2052
   5395  O         14.2270    6.7000   13.0160 O.3  1800  WAT1800    -0.4105
   5396  H1        13.8140    7.5250   13.2700 H    1800  WAT1800     0.2052
   5397  H2        13.4940    6.1140   12.8230 H    1800  WAT1800     0.2052
   5398  O          6.3600    9.4860    7.8770 O.3  1801  WAT1801    -0.4105
   5399  H1         5.9560    8.7730    7.3820 H    1801  WAT1801     0.2052
   5400  H2         6.4460    9.1410    8.7660 H    1801  WAT1801     0.2052
   5401  O          6.8280   13.1720   10.0410 O.3  1802  WAT1802    -0.4105
   5402  H1         6.5310   12.5670    9.3620 H    1802  WAT1802     0.2052
   5403  H2         7.7780   13.2100    9.9300 H    1802  WAT1802     0.2052
   5404  O          5.0730    6.2600   11.6570 O.3  1803  WAT1803    -0.4105
   5405  H1         5.6240    6.3690   10.8830 H    1803  WAT1803     0.2052
   5406  H2         5.5870    6.6340   12.3730 H    1803  WAT1803     0.2052
   5407  O         14.9170   16.7460   13.7040 O.3  1804  WAT1804    -0.4105
   5408  H1        14.4400   17.5530   13.5110 H    1804  WAT1804     0.2052
   5409  H2        14.2330   16.0930   13.8560 H    1804  WAT1804     0.2052
   5410  O          5.9200   12.9110   16.6920 O.3  1805  WAT1805    -0.4105
   5411  H1         5.0230   13.1350   16.9390 H    1805  WAT1805     0.2052
   5412  H2         5.9450   13.0340   15.7430 H    1805  WAT1805     0.2052
   5413  O         12.9600    9.7600    2.6060 O.3  1806  WAT1806    -0.4105
   5414  H1        13.4000    8.9220    2.4600 H    1806  WAT1806     0.2052
   5415  H2        13.6730   10.3930    2.6930 H    1806  WAT1806     0.2052
   5416  O          4.7470    9.7820   15.2680 O.3  1807  WAT1807    -0.4105
   5417  H1         4.6080   10.6540   15.6370 H    1807  WAT1807     0.2052
   5418  H2         3.8650    9.4390   15.1230 H    1807  WAT1807     0.2052
   5419  O         11.0700   14.6990    6.5740 O.3  1808  WAT1808    -0.4105
   5420  H1        11.5100   15.4420    6.1600 H    1808  WAT1808     0.2052
   5421  H2        11.0090   14.9420    7.4980 H    1808  WAT1808     0.2052
   5422  O          6.5450   15.7240   17.4760 O.3  1809  WAT1809    -0.4105
   5423  H1         6.5170   16.1280   16.6090 H    1809  WAT1809     0.2052
   5424  H2         6.3820   14.7950   17.3130 H    1809  WAT1809     0.2052
   5425  O         16.5420    1.0140    0.9200 O.3  1810  WAT1810    -0.4105
   5426  H1        16.2290    1.1070    1.8200 H    1810  WAT1810     0.2052
   5427  H2        17.3030    1.5920    0.8700 H    1810  WAT1810     0.2052
   5428  O          3.0600    8.3800    5.3780 O.3  1811  WAT1811    -0.4105
   5429  H1         2.9400    9.1060    4.7660 H    1811  WAT1811     0.2052
   5430  H2         2.7500    7.6100    4.9010 H    1811  WAT1811     0.2052
   5431  O         18.4970   16.5070   18.7730 O.3  1812  WAT1812    -0.4105
   5432  H1        18.9720   16.9850   19.4520 H    1812  WAT1812     0.2052
   5433  H2        19.1170   16.4380   18.0470 H    1812  WAT1812     0.2052
   5434  O          0.6990   11.5520   11.1850 O.3  1813  WAT1813    -0.4105
   5435  H1         0.7770   11.6860   10.2400 H    1813  WAT1813     0.2052
   5436  H2         1.3130   10.8430   11.3780 H    1813  WAT1813     0.2052
   5437  O          1.9440   13.2520    7.5960 O.3  1814  WAT1814    -0.4105
   5438  H1         1.5360   13.3930    6.7410 H    1814  WAT1814     0.2052
   5439  H2         2.8350   12.9680    7.3930 H    1814  WAT1814     0.2052
   5440  O         17.9000   13.6980   15.9330 O.3  1815  WAT1815    -0.4105
   5441  H1        18.0260   13.4590   15.0140 H    1815  WAT1815     0.2052
   5442  H2        17.9420   12.8660   16.4050 H    1815  WAT1815     0.2052
   5443  O         11.7620   17.4010   14.5020 O.3  1816  WAT1816    -0.4105
   5444  H1        12.2760   17.3120   15.3040 H    1816  WAT1816     0.2052
   5445  H2        10.9180   17.7470   14.7950 H    1816  WAT1816     0.2052
   5446  O         13.7370   17.6860    3.9310 O.3  1817  WAT1817    -0.4105
   5447  H1        13.5770   17.3970    4.8290 H    1817  WAT1817     0.2052
   5448  H2        13.5720   16.9100    3.3950 H    1817  WAT1817     0.2052
   5449  O          6.2160   17.4660    5.7080 O.3  1818  WAT1818    -0.4105
   5450  H1         6.0400   16.5500    5.4950 H    1818  WAT1818     0.2052
   5451  H2         5.3610   17.8250    5.9480 H    1818  WAT1818     0.2052
   5452  O         13.4400   15.1950    2.4900 O.3  1819  WAT1819    -0.4105
   5453  H1        12.7460   15.1930    1.8310 H    1819  WAT1819     0.2052
   5454  H2        14.1820   14.7710    2.0600 H    1819  WAT1819     0.2052
   5455  O         13.0050   16.8210    6.5650 O.3  1820  WAT1820    -0.4105
   5456  H1        13.4600   16.0400    6.8790 H    1820  WAT1820     0.2052
   5457  H2        13.3440   17.5320    7.1090 H    1820  WAT1820     0.2052
   5458  O         17.7520    5.7510   16.8980 O.3  1821  WAT1821    -0.4105
   5459  H1        17.1370    6.2590   16.3690 H    1821  WAT1821     0.2052
   5460  H2        17.4320    4.8510   16.8400 H    1821  WAT1821     0.2052
   5461  O          0.7550   12.5930   13.7240 O.3  1822  WAT1822    -0.4105
   5462  H1         0.9180   12.1240   12.9060 H    1822  WAT1822     0.2052
   5463  H2         1.2200   12.0850   14.3890 H    1822  WAT1822     0.2052
   5464  O          5.5270    1.7240    8.7600 O.3  1823  WAT1823    -0.4105
   5465  H1         5.0830    2.5050    8.4290 H    1823  WAT1823     0.2052
   5466  H2         6.0850    2.0470    9.4680 H    1823  WAT1823     0.2052
   5467  O          9.8140    4.5900   14.3640 O.3  1824  WAT1824    -0.4105
   5468  H1         9.3520    4.7990   15.1760 H    1824  WAT1824     0.2052
   5469  H2         9.4110    3.7760   14.0610 H    1824  WAT1824     0.2052
   5470  O         14.8140    5.8110   15.4940 O.3  1825  WAT1825    -0.4105
   5471  H1        13.9630    5.5120   15.8150 H    1825  WAT1825     0.2052
   5472  H2        14.6540    6.0560   14.5820 H    1825  WAT1825     0.2052
   5473  O         11.9090    7.3120   17.5930 O.3  1826  WAT1826    -0.4105
   5474  H1        12.2340    6.4780   17.2540 H    1826  WAT1826     0.2052
   5475  H2        12.6970    7.8340   17.7410 H    1826  WAT1826     0.2052
   5476  O          8.6430    1.3450    3.6410 O.3  1827  WAT1827    -0.4105
   5477  H1         8.0180    1.3410    4.3660 H    1827  WAT1827     0.2052
   5478  H2         8.5560    0.4780    3.2450 H    1827  WAT1827     0.2052
   5479  O          7.5640    2.2680   10.6190 O.3  1828  WAT1828    -0.4105
   5480  H1         7.8620    3.1750   10.5390 H    1828  WAT1828     0.2052
   5481  H2         8.1130    1.7800   10.0050 H    1828  WAT1828     0.2052
   5482  O          5.3180    6.8470    6.4890 O.3  1829  WAT1829    -0.4105
   5483  H1         5.0920    6.6310    7.3930 H    1829  WAT1829     0.2052
   5484  H2         4.5370    7.2800    6.1430 H    1829  WAT1829     0.2052
   5485  O         12.5480    6.8530    5.0880 O.3  1830  WAT1830    -0.4105
   5486  H1        11.9490    7.5770    4.9040 H    1830  WAT1830     0.2052
   5487  H2        13.0960    6.7910    4.3050 H    1830  WAT1830     0.2052
   5488  O          7.7580    7.7460   17.1550 O.3  1831  WAT1831    -0.4105
   5489  H1         7.6620    6.8050   17.0050 H    1831  WAT1831     0.2052
   5490  H2         8.6010    7.9670   16.7590 H    1831  WAT1831     0.2052
   5491  O         11.1540    5.4900    7.1180 O.3  1832  WAT1832    -0.4105
   5492  H1        11.5470    5.8070    6.3050 H    1832  WAT1832     0.2052
   5493  H2        11.5160    4.6110    7.2320 H    1832  WAT1832     0.2052
   5494  O          2.8890    4.1570   15.3080 O.3  1833  WAT1833    -0.4105
   5495  H1         2.4950    5.0040   15.5150 H    1833  WAT1833     0.2052
   5496  H2         2.2010    3.5200   15.4990 H    1833  WAT1833     0.2052
   5497  O          9.4640    4.2400   18.3780 O.3  1834  WAT1834    -0.4105
   5498  H1         8.7730    4.0480   19.0120 H    1834  WAT1834     0.2052
   5499  H2        10.2070    4.5240   18.9100 H    1834  WAT1834     0.2052
   5500  O          0.1910    2.0800    9.3410 O.3  1835  WAT1835    -0.4105
   5501  H1        -0.0980    2.6500   10.0530 H    1835  WAT1835     0.2052
   5502  H2         0.9350    1.6000    9.7040 H    1835  WAT1835     0.2052
   5503  O          0.3780    6.0220    0.5510 O.3  1836  WAT1836    -0.4105
   5504  H1         0.2950    6.9650    0.6930 H    1836  WAT1836     0.2052
   5505  H2         0.0260    5.8790   -0.3280 H    1836  WAT1836     0.2052
   5506  O         11.7400    8.0800   11.2130 O.3  1837  WAT1837    -0.4105
   5507  H1        11.0080    8.5890   11.5620 H    1837  WAT1837     0.2052
   5508  H2        11.3420    7.2630   10.9120 H    1837  WAT1837     0.2052
   5509  O          8.1780    4.7560    9.6180 O.3  1838  WAT1838    -0.4105
   5510  H1         8.1810    4.3150    8.7690 H    1838  WAT1838     0.2052
   5511  H2         9.0730    5.0770    9.7250 H    1838  WAT1838     0.2052
   5512  O          4.0280    4.6380    8.5780 O.3  1839  WAT1839    -0.4105
   5513  H1         3.6880    5.1160    9.3340 H    1839  WAT1839     0.2052
   5514  H2         3.2660    4.1850    8.2180 H    1839  WAT1839     0.2052
   5515  O          8.2400    5.7570    2.6090 O.3  1840  WAT1840    -0.4105
   5516  H1         8.3610    5.7160    3.5580 H    1840  WAT1840     0.2052
   5517  H2         7.8540    6.6190    2.4540 H    1840  WAT1840     0.2052
   5518  O         12.2020    3.5340   10.6250 O.3  1841  WAT1841    -0.4105
   5519  H1        12.2200    3.9840   11.4690 H    1841  WAT1841     0.2052
   5520  H2        11.9540    2.6340   10.8390 H    1841  WAT1841     0.2052
   5521  O          7.2520    8.0670    2.0070 O.3  1842  WAT1842    -0.4105
   5522  H1         6.6830    7.6190    1.3810 H    1842  WAT1842     0.2052
   5523  H2         7.9610    8.4260    1.4740 H    1842  WAT1842     0.2052
   5524  O         15.6300    0.9470   16.4640 O.3  1843  WAT1843    -0.4105
   5525  H1        15.9540    0.2160   16.9900 H    1843  WAT1843     0.2052
   5526  H2        15.6650    0.6280   15.5620 H    1843  WAT1843     0.2052
   5527  O          2.3290   11.9680   15.8840 O.3  1844  WAT1844    -0.4105
   5528  H1         1.9440   11.3280   16.4820 H    1844  WAT1844     0.2052
   5529  H2         2.6400   12.6720   16.4530 H    1844  WAT1844     0.2052
   5530  O          8.4780    8.8160   11.3650 O.3  1845  WAT1845    -0.4105
   5531  H1         8.8450    8.3420   12.1110 H    1845  WAT1845     0.2052
   5532  H2         8.2890    9.6900   11.7060 H    1845  WAT1845     0.2052
   5533  O          1.3420    3.5600    7.4940 O.3  1846  WAT1846    -0.4105
   5534  H1         1.0570    3.1960    8.3320 H    1846  WAT1846     0.2052
   5535  H2         1.2800    2.8280    6.8800 H    1846  WAT1846     0.2052
   5536  O          6.2680    7.8570   13.6830 O.3  1847  WAT1847    -0.4105
   5537  H1         5.9640    8.7360   13.9080 H    1847  WAT1847     0.2052
   5538  H2         7.2230    7.9170   13.7190 H    1847  WAT1847     0.2052
   5539  O          4.7970   12.0630    4.2800 O.3  1848  WAT1848    -0.4105
   5540  H1         4.0230   11.5230    4.1200 H    1848  WAT1848     0.2052
   5541  H2         5.5260   11.5430    3.9420 H    1848  WAT1848     0.2052
   5542  O         15.5550   11.0590   10.0730 O.3  1849  WAT1849    -0.4105
   5543  H1        16.2750   11.5550    9.6820 H    1849  WAT1849     0.2052
   5544  H2        15.3540   10.3810    9.4280 H    1849  WAT1849     0.2052
   5545  O         11.0160    2.4530    4.2150 O.3  1850  WAT1850    -0.4105
   5546  H1        10.2030    1.9540    4.1400 H    1850  WAT1850     0.2052
   5547  H2        10.8230    3.2930    3.7990 H    1850  WAT1850     0.2052
   5548  O         10.9370   11.1300   15.9590 O.3  1851  WAT1851    -0.4105
   5549  H1        10.8710   10.2100   15.7050 H    1851  WAT1851     0.2052
   5550  H2        10.3080   11.2280   16.6740 H    1851  WAT1851     0.2052
   5551  O         13.7310    6.8250    2.5120 O.3  1852  WAT1852    -0.4105
   5552  H1        14.6190    7.1370    2.3370 H    1852  WAT1852     0.2052
   5553  H2        13.7020    5.9520    2.1200 H    1852  WAT1852     0.2052
   5554  O          4.8400   11.7310    7.9180 O.3  1853  WAT1853    -0.4105
   5555  H1         5.3580   10.9280    7.8630 H    1853  WAT1853     0.2052
   5556  H2         4.3890   11.6690    8.7590 H    1853  WAT1853     0.2052
   5557  O          9.7270   12.9970    3.1910 O.3  1854  WAT1854    -0.4105
   5558  H1        10.0690   13.7420    2.6950 H    1854  WAT1854     0.2052
   5559  H2         8.8980   13.3110    3.5530 H    1854  WAT1854     0.2052
   5560  O          2.3250    8.6970   14.8300 O.3  1855  WAT1855    -0.4105
   5561  H1         1.9660    9.3620   15.4180 H    1855  WAT1855     0.2052
   5562  H2         2.0300    7.8650   15.2020 H    1855  WAT1855     0.2052
   5563  O          5.5260    9.1550   17.7140 O.3  1856  WAT1856    -0.4105
   5564  H1         5.2260    9.3010   16.8170 H    1856  WAT1856     0.2052
   5565  H2         6.2970    8.5960   17.6220 H    1856  WAT1856     0.2052
   5566  O         10.8690   13.9520   15.7100 O.3  1857  WAT1857    -0.4105
   5567  H1        10.8830   13.0200   15.4920 H    1857  WAT1857     0.2052
   5568  H2        10.1610   14.0380   16.3490 H    1857  WAT1857     0.2052
   5569  O         16.0030    8.1360    1.9800 O.3  1858  WAT1858    -0.4105
   5570  H1        15.9190    8.5680    1.1290 H    1858  WAT1858     0.2052
   5571  H2        16.7220    8.5960    2.4120 H    1858  WAT1858     0.2052
   5572  O         17.0800   10.5930   15.0570 O.3  1859  WAT1859    -0.4105
   5573  H1        16.3550   11.1860   14.8600 H    1859  WAT1859     0.2052
   5574  H2        17.6080   10.5850   14.2580 H    1859  WAT1859     0.2052
   5575  O         17.0310   14.9900    4.7080 O.3  1860  WAT1860    -0.4105
   5576  H1        16.3890   14.3360    4.9820 H    1860  WAT1860     0.2052
   5577  H2        16.6440   15.3960    3.9320 H    1860  WAT1860     0.2052
   5578  O         12.6100   12.3190    8.5550 O.3  1861  WAT1861    -0.4105
   5579  H1        12.9620   11.7220    7.8950 H    1861  WAT1861     0.2052
   5580  H2        11.7260   11.9930    8.7260 H    1861  WAT1861     0.2052
   5581  O          8.6960   13.0790    5.9620 O.3  1862  WAT1862    -0.4105
   5582  H1         9.3830   13.6260    6.3430 H    1862  WAT1862     0.2052
   5583  H2         7.9100   13.6230    5.9970 H    1862  WAT1862     0.2052
   5584  O          0.8360    8.6960    1.4540 O.3  1863  WAT1863    -0.4105
   5585  H1         1.7050    8.9790    1.7370 H    1863  WAT1863     0.2052
   5586  H2         0.3450    9.5100    1.3390 H    1863  WAT1863     0.2052
   5587  O          7.9990   10.0830    5.5750 O.3  1864  WAT1864    -0.4105
   5588  H1         8.4550   10.8940    5.8010 H    1864  WAT1864     0.2052
   5589  H2         7.6480    9.7660    6.4060 H    1864  WAT1864     0.2052
   5590  O         10.3020   15.5940   12.8040 O.3  1865  WAT1865    -0.4105
   5591  H1        10.9460   15.8000   13.4810 H    1865  WAT1865     0.2052
   5592  H2        10.6650   14.8330   12.3510 H    1865  WAT1865     0.2052
   5593  O          3.9000    0.4270    6.0470 O.3  1866  WAT1866    -0.4105
   5594  H1         3.7720    0.4190    6.9950 H    1866  WAT1866     0.2052
   5595  H2         3.0760    0.7650    5.6960 H    1866  WAT1866     0.2052
   5596  O         11.5750   13.5970   11.5220 O.3  1867  WAT1867    -0.4105
   5597  H1        12.2180   12.8970   11.6350 H    1867  WAT1867     0.2052
   5598  H2        12.1000   14.3770   11.3410 H    1867  WAT1867     0.2052
   5599  O         15.4210   13.8820    1.2460 O.3  1868  WAT1868    -0.4105
   5600  H1        15.1950   13.1650    1.8380 H    1868  WAT1868     0.2052
   5601  H2        15.0310   13.6330    0.4080 H    1868  WAT1868     0.2052
   5602  O         13.3490   14.3970   14.7250 O.3  1869  WAT1869    -0.4105
   5603  H1        13.6850   14.9830   15.4030 H    1869  WAT1869     0.2052
   5604  H2        12.4290   14.2660   14.9550 H    1869  WAT1869     0.2052
   5605  O          1.2030   17.9090    2.0200 O.3  1870  WAT1870    -0.4105
   5606  H1         1.5620   18.5080    1.3660 H    1870  WAT1870     0.2052
   5607  H2         1.0620   18.4550    2.7930 H    1870  WAT1870     0.2052
   5608  O          0.9000    2.1860   15.5080 O.3  1871  WAT1871    -0.4105
   5609  H1         0.1850    2.3860   16.1130 H    1871  WAT1871     0.2052
   5610  H2         1.3190    1.4100   15.8790 H    1871  WAT1871     0.2052
   5611  O         15.0030   11.7990    2.9070 O.3  1872  WAT1872    -0.4105
   5612  H1        14.7150   12.2610    3.6950 H    1872  WAT1872     0.2052
   5613  H2        15.7980   11.3390    3.1750 H    1872  WAT1872     0.2052
   5614  O          1.1870   16.1740   16.4940 O.3  1873  WAT1873    -0.4105
   5615  H1         1.2960   15.2340   16.3540 H    1873  WAT1873     0.2052
   5616  H2         0.5350   16.4400   15.8460 H    1873  WAT1873     0.2052
   5617  O          9.1780   14.4460   17.8940 O.3  1874  WAT1874    -0.4105
   5618  H1         8.8580   13.7270   18.4390 H    1874  WAT1874     0.2052
   5619  H2         8.5040   15.1210   17.9680 H    1874  WAT1874     0.2052
   5620  O          7.2200   15.2920    2.8370 O.3  1875  WAT1875    -0.4105
   5621  H1         7.2110   16.0250    2.2220 H    1875  WAT1875     0.2052
   5622  H2         6.2990   15.0450    2.9300 H    1875  WAT1875     0.2052
   5623  O          2.8200   10.5130    3.5820 O.3  1876  WAT1876    -0.4105
   5624  H1         2.2130   11.2530    3.5920 H    1876  WAT1876     0.2052
   5625  H2         3.2950   10.6030    2.7560 H    1876  WAT1876     0.2052
   5626  O         12.3930    4.6790   13.2580 O.3  1877  WAT1877    -0.4105
   5627  H1        12.7620    3.8580   13.5860 H    1877  WAT1877     0.2052
   5628  H2        11.5330    4.7390   13.6730 H    1877  WAT1877     0.2052
   5629  O         15.7600    3.6340    4.0660 O.3  1878  WAT1878    -0.4105
   5630  H1        15.1310    3.7390    3.3520 H    1878  WAT1878     0.2052
   5631  H2        15.2650    3.8540    4.8560 H    1878  WAT1878     0.2052
   5632  O         10.2050   15.3550    1.5000 O.3  1879  WAT1879    -0.4105
   5633  H1        10.3070   15.1510    0.5700 H    1879  WAT1879     0.2052
   5634  H2         9.3060   15.1010    1.7050 H    1879  WAT1879     0.2052
   5635  O          7.7280    5.9130    5.4820 O.3  1880  WAT1880    -0.4105
   5636  H1         7.0200    6.3810    5.9240 H    1880  WAT1880     0.2052
   5637  H2         8.0130    5.2550    6.1170 H    1880  WAT1880     0.2052
   5638  O          9.3540    7.3320   13.4820 O.3  1881  WAT1881    -0.4105
   5639  H1         9.8520    7.8070   14.1470 H    1881  WAT1881     0.2052
   5640  H2         9.4960    6.4090   13.6890 H    1881  WAT1881     0.2052
   5641  O         11.7600    2.6380    6.9220 O.3  1882  WAT1882    -0.4105
   5642  H1        11.6360    2.6560    5.9730 H    1882  WAT1882     0.2052
   5643  H2        12.7080    2.6860    7.0420 H    1882  WAT1882     0.2052
   5644  O          8.8470   17.8730    6.1950 O.3  1883  WAT1883    -0.4105
   5645  H1         9.1010   17.8360    5.2730 H    1883  WAT1883     0.2052
   5646  H2         7.8990   17.7470    6.1870 H    1883  WAT1883     0.2052
   5647  O          5.9320    4.2210    2.8570 O.3  1884  WAT1884    -0.4105
   5648  H1         6.7810    4.6580    2.7910 H    1884  WAT1884     0.2052
   5649  H2         5.5650    4.5330    3.6850 H    1884  WAT1884     0.2052
   5650  O         16.5600    3.5490   14.3240 O.3  1885  WAT1885    -0.4105
   5651  H1        16.0580    4.2900   14.6640 H    1885  WAT1885     0.2052
   5652  H2        17.3760    3.9380   14.0080 H    1885  WAT1885     0.2052
   5653  O         14.8530    8.7930    7.7700 O.3  1886  WAT1886    -0.4105
   5654  H1        13.9120    8.8080    7.9450 H    1886  WAT1886     0.2052
   5655  H2        15.1670    8.0060    8.2170 H    1886  WAT1886     0.2052
   5656  O          4.8310   10.4750    1.3310 O.3  1887  WAT1887    -0.4105
   5657  H1         5.5970   10.3630    1.8930 H    1887  WAT1887     0.2052
   5658  H2         4.9080    9.7780    0.6790 H    1887  WAT1887     0.2052
   5659  O          3.5250    7.9070    2.0140 O.3  1888  WAT1888    -0.4105
   5660  H1         3.6060    6.9600    2.1260 H    1888  WAT1888     0.2052
   5661  H2         4.4170    8.2380    2.1200 H    1888  WAT1888     0.2052
   5662  O         16.8550   15.9630    9.4460 O.3  1889  WAT1889    -0.4105
   5663  H1        16.9800   16.7870    9.9180 H    1889  WAT1889     0.2052
   5664  H2        17.7220   15.7530    9.0980 H    1889  WAT1889     0.2052
   5665  O          4.3270   18.0570    9.1180 O.3  1890  WAT1890    -0.4105
   5666  H1         5.0630   17.5080    9.3880 H    1890  WAT1890     0.2052
   5667  H2         4.7110   18.9220    8.9780 H    1890  WAT1890     0.2052
   5668  O          1.2110   14.1240    4.9920 O.3  1891  WAT1891    -0.4105
   5669  H1         0.2850   14.3660    4.9820 H    1891  WAT1891     0.2052
   5670  H2         1.6770   14.9510    4.8700 H    1891  WAT1891     0.2052
   5671  O          3.3330   17.2410   18.3060 O.3  1892  WAT1892    -0.4105
   5672  H1         4.1340   17.5620   18.7200 H    1892  WAT1892     0.2052
   5673  H2         2.8180   16.8810   19.0280 H    1892  WAT1892     0.2052
   5674  O          7.4370   17.2300    0.9400 O.3  1893  WAT1893    -0.4105
   5675  H1         8.2300   17.5190    0.4880 H    1893  WAT1893     0.2052
   5676  H2         6.9180   16.7990    0.2610 H    1893  WAT1893     0.2052
   5677  O         12.1690   13.3490   18.2540 O.3  1894  WAT1894    -0.4105
   5678  H1        11.5630   13.3720   17.5130 H    1894  WAT1894     0.2052
   5679  H2        11.8650   12.6170   18.7900 H    1894  WAT1894     0.2052
   5680  O         13.5990   17.0770   16.8650 O.3  1895  WAT1895    -0.4105
   5681  H1        14.5510   16.9930   16.8150 H    1895  WAT1895     0.2052
   5682  H2        13.4520   17.7410   17.5380 H    1895  WAT1895     0.2052
   5683  O         16.4900   16.4570    2.3640 O.3  1896  WAT1896    -0.4105
   5684  H1        16.2040   16.0430    1.5490 H    1896  WAT1896     0.2052
   5685  H2        16.2920   17.3850    2.2440 H    1896  WAT1896     0.2052
   5686  O          1.0520    9.7290   17.2500 O.3  1897  WAT1897    -0.4105
   5687  H1         1.5560    9.1490   17.8210 H    1897  WAT1897     0.2052
   5688  H2         0.3130   10.0130   17.7870 H    1897  WAT1897     0.2052
   5689  O          7.9550   12.4500    0.8040 O.3  1898  WAT1898    -0.4105
   5690  H1         7.8500   11.8350    1.5310 H    1898  WAT1898     0.2052
   5691  H2         7.7870   11.9270    0.0210 H    1898  WAT1898     0.2052
   5692  O          8.1060   11.1360   16.7830 O.3  1899  WAT1899    -0.4105
   5693  H1         7.3410   11.7040   16.6990 H    1899  WAT1899     0.2052
   5694  H2         8.2880   10.8430   15.8900 H    1899  WAT1899     0.2052
   5695  O         11.1950   11.5120    1.4090 O.3  1900  WAT1900    -0.4105
   5696  H1        10.6460   11.9590    2.0530 H    1900  WAT1900     0.2052
   5697  H2        11.8170   11.0070    1.9320 H    1900  WAT1900     0.2052
   5698  O         15.2490   12.8660   17.3410 O.3  1901  WAT1901    -0.4105
   5699  H1        15.9900   13.2040   16.8380 H    1901  WAT1901     0.2052
   5700  H2        14.4860   13.0350   16.7880 H    1901  WAT1901     0.2052
   5701  O          3.0850    7.8720   18.1450 O.3  1902  WAT1902    -0.4105
   5702  H1         3.1250    7.5730   19.0530 H    1902  WAT1902     0.2052
   5703  H2         3.9390    8.2720   17.9860 H    1902  WAT1902     0.2052
   5704  O          6.8630   10.4710    3.3050 O.3  1903  WAT1903    -0.4105
   5705  H1         7.2840   10.3050    4.1480 H    1903  WAT1903     0.2052
   5706  H2         6.9880    9.6610    2.8110 H    1903  WAT1903     0.2052
   5707  O          5.0250    6.4510   16.1120 O.3  1904  WAT1904    -0.4105
   5708  H1         4.4950    5.9600   15.4850 H    1904  WAT1904     0.2052
   5709  H2         5.6940    6.8790   15.5780 H    1904  WAT1904     0.2052
   5710  O          9.3750    9.4950    0.5530 O.3  1905  WAT1905    -0.4105
   5711  H1         9.8960    8.7800    0.1870 H    1905  WAT1905     0.2052
   5712  H2        10.0220   10.1330    0.8530 H    1905  WAT1905     0.2052
   5713  O         13.9230   10.9180   15.8760 O.3  1906  WAT1906    -0.4105
   5714  H1        14.3370   11.0720   16.7250 H    1906  WAT1906     0.2052
   5715  H2        12.9880   11.0430   16.0390 H    1906  WAT1906     0.2052
   5716  O         14.3950    8.2570   17.8800 O.3  1907  WAT1907    -0.4105
   5717  H1        14.9770    7.5030   17.7920 H    1907  WAT1907     0.2052
   5718  H2        14.5720    8.7880   17.1030 H    1907  WAT1907     0.2052
   5719  O          5.5130    3.4170   16.1920 O.3  1908  WAT1908    -0.4105
   5720  H1         5.4180    2.7990   15.4670 H    1908  WAT1908     0.2052
   5721  H2         4.9320    4.1440   15.9650 H    1908  WAT1908     0.2052
   5722  O          8.2790    1.9740   13.2250 O.3  1909  WAT1909    -0.4105
   5723  H1         7.8300    1.9970   12.3790 H    1909  WAT1909     0.2052
   5724  H2         7.6450    1.5760   13.8220 H    1909  WAT1909     0.2052
   5725  O          8.6850   10.8700   13.8460 O.3  1910  WAT1910    -0.4105
   5726  H1         9.1030   11.7130   13.6740 H    1910  WAT1910     0.2052
   5727  H2         7.7660   11.0070   13.6170 H    1910  WAT1910     0.2052
   5728  O         11.0210    8.6010   15.2300 O.3  1911  WAT1911    -0.4105
   5729  H1        11.1410    8.0050   15.9690 H    1911  WAT1911     0.2052
   5730  H2        11.8800    8.6380   14.8100 H    1911  WAT1911     0.2052
   5731  O         13.3600    9.1550   13.8060 O.3  1912  WAT1912    -0.4105
   5732  H1        12.8330    9.6790   13.2030 H    1912  WAT1912     0.2052
   5733  H2        13.7030    9.7880   14.4370 H    1912  WAT1912     0.2052
   5734  O          5.7590    6.5440    0.2510 O.3  1913  WAT1913    -0.4105
   5735  H1         5.5570    5.6810    0.6120 H    1913  WAT1913     0.2052
   5736  H2         5.5880    6.4580   -0.6870 H    1913  WAT1913     0.2052
   5737  O          6.5350   17.1750   14.9620 O.3  1914  WAT1914    -0.4105
   5738  H1         5.9980   17.9000   14.6430 H    1914  WAT1914     0.2052
   5739  H2         6.7890   16.6980   14.1710 H    1914  WAT1914     0.2052
   5740  O          7.7880    5.1430   16.4870 O.3  1915  WAT1915    -0.4105
   5741  H1         8.3780    4.8350   17.1750 H    1915  WAT1915     0.2052
   5742  H2         6.9700    4.6710   16.6430 H    1915  WAT1915     0.2052
   5743  O         12.6070    4.7600   16.7210 O.3  1916  WAT1916    -0.4105
   5744  H1        11.9190    4.0980   16.6560 H    1916  WAT1916     0.2052
   5745  H2        13.3280    4.3140   17.1650 H    1916  WAT1916     0.2052
   5746  O         13.2370    1.3550    2.7800 O.3  1917  WAT1917    -0.4105
   5747  H1        13.5180    0.5120    3.1360 H    1917  WAT1917     0.2052
   5748  H2        12.4640    1.5880    3.2940 H    1917  WAT1917     0.2052
   5749  O          4.5570    3.6440    0.2390 O.3  1918  WAT1918    -0.4105
   5750  H1         4.8590    3.6510   -0.6690 H    1918  WAT1918     0.2052
   5751  H2         5.2960    3.2940    0.7360 H    1918  WAT1918     0.2052
   5752  O          9.3920   18.4100   15.2200 O.3  1919  WAT1919    -0.4105
   5753  H1         9.3180   19.3140   15.5280 H    1919  WAT1919     0.2052
   5754  H2         8.4900   18.0910   15.1930 H    1919  WAT1919     0.2052
   5755  O          7.7750    2.5880    1.2240 O.3  1920  WAT1920    -0.4105
   5756  H1         7.4270    1.9100    0.6450 H    1920  WAT1920     0.2052
   5757  H2         7.9770    2.1270    2.0390 H    1920  WAT1920     0.2052
   5758  O          9.9400   17.5760    2.8430 O.3  1921  WAT1921    -0.4105
   5759  H1        10.8350   17.9140    2.8650 H    1921  WAT1921     0.2052
   5760  H2         9.9720   16.8540    2.2150 H    1921  WAT1921     0.2052
   5761  O          3.5800   12.9490    1.0720 O.3  1922  WAT1922    -0.4105
   5762  H1         4.0170   13.4920    1.7270 H    1922  WAT1922     0.2052
   5763  H2         4.0650   12.1230    1.0810 H    1922  WAT1922     0.2052
   5764  O          0.7940   15.7380    8.5240 O.3  1923  WAT1923    -0.4105
   5765  H1         1.1250   14.8700    8.2920 H    1923  WAT1923     0.2052
   5766  H2         1.2230   15.9430    9.3540 H    1923  WAT1923     0.2052
   5767  O          5.3910   14.0680    6.1840 O.3  1924  WAT1924    -0.4105
   5768  H1         5.0900   13.9450    7.0840 H    1924  WAT1924     0.2052
   5769  H2         5.2840   13.2090    5.7760 H    1924  WAT1924     0.2052
   5770  O          1.2830   16.6050   11.2620 O.3  1925  WAT1925    -0.4105
   5771  H1         0.8460   16.7850   12.0940 H    1925  WAT1925     0.2052
   5772  H2         1.8510   17.3620   11.1200 H    1925  WAT1925     0.2052
   5773  O         16.9200   16.1060   15.5500 O.3  1926  WAT1926    -0.4105
   5774  H1        16.3200   16.1660   14.8060 H    1926  WAT1926     0.2052
   5775  H2        17.0490   15.1670   15.6790 H    1926  WAT1926     0.2052
   5776  O         18.1600   13.8480    0.8870 O.3  1927  WAT1927    -0.4105
   5777  H1        17.3290   13.9160    1.3570 H    1927  WAT1927     0.2052
   5778  H2        18.3370   14.7390    0.5830 H    1927  WAT1927     0.2052
   5779  O         17.6150   10.5930    3.3900 O.3  1928  WAT1928    -0.4105
   5780  H1        18.3770   11.1630    3.4960 H    1928  WAT1928     0.2052
   5781  H2        17.6310   10.0260    4.1610 H    1928  WAT1928     0.2052
   5782  O          1.1160    9.1170    7.6210 O.3  1929  WAT1929    -0.4105
   5783  H1         0.4610    8.8480    6.9770 H    1929  WAT1929     0.2052
   5784  H2         1.9540    9.0070    7.1710 H    1929  WAT1929     0.2052
   5785  O         18.6210   11.4480    8.2340 O.3  1930  WAT1930    -0.4105
   5786  H1        18.9920   10.6650    7.8280 H    1930  WAT1930     0.2052
   5787  H2        19.2620   12.1370    8.0560 H    1930  WAT1930     0.2052
   5788  O         15.6050   12.8320   13.6470 O.3  1931  WAT1931    -0.4105
   5789  H1        14.7910   13.2610   13.9100 H    1931  WAT1931     0.2052
   5790  H2        16.0120   13.4430   13.0340 H    1931  WAT1931     0.2052
   5791  O         17.6670   10.8860    0.5470 O.3  1932  WAT1932    -0.4105
   5792  H1        17.9420   11.7940    0.4190 H    1932  WAT1932     0.2052
   5793  H2        17.4780   10.8230    1.4830 H    1932  WAT1932     0.2052
   5794  O         14.0650    3.9110    1.8430 O.3  1933  WAT1933    -0.4105
   5795  H1        14.4830    3.7240    1.0020 H    1933  WAT1933     0.2052
   5796  H2        13.7580    3.0590    2.1530 H    1933  WAT1933     0.2052
   5797  O         17.5640    8.8230    5.5400 O.3  1934  WAT1934    -0.4105
   5798  H1        17.1880    8.0560    5.1080 H    1934  WAT1934     0.2052
   5799  H2        16.8340    9.2050    6.0280 H    1934  WAT1934     0.2052
   5800  O          2.1530    9.5020   12.1610 O.3  1935  WAT1935    -0.4105
   5801  H1         2.5210    9.4150   13.0410 H    1935  WAT1935     0.2052
   5802  H2         1.5850    8.7390   12.0620 H    1935  WAT1935     0.2052
   5803  O         16.9540    7.9700   15.1740 O.3  1936  WAT1936    -0.4105
   5804  H1        16.7220    7.7420   14.2740 H    1936  WAT1936     0.2052
   5805  H2        17.2140    8.8900   15.1290 H    1936  WAT1936     0.2052
   5806  O          1.7050    6.4130   16.0670 O.3  1937  WAT1937    -0.4105
   5807  H1         0.8110    6.3800   16.4060 H    1937  WAT1937     0.2052
   5808  H2         2.2450    6.6120   16.8320 H    1937  WAT1937     0.2052
   5809  O         15.3930    3.1960   17.9520 O.3  1938  WAT1938    -0.4105
   5810  H1        16.2700    3.2040   18.3360 H    1938  WAT1938     0.2052
   5811  H2        15.4050    2.4590   17.3410 H    1938  WAT1938     0.2052
   5812  O          0.3300    6.3270    3.5630 O.3  1939  WAT1939    -0.4105
   5813  H1        -0.5740    6.5900    3.3890 H    1939  WAT1939     0.2052
   5814  H2         0.8140    6.5980    2.7830 H    1939  WAT1939     0.2052
   5815  O         16.8390    7.0490    8.8410 O.3  1940  WAT1940    -0.4105
   5816  H1        17.3630    6.5550    8.2100 H    1940  WAT1940     0.2052
   5817  H2        17.4250    7.1840    9.5860 H    1940  WAT1940     0.2052
   5818  O         17.0180    7.1330   12.3630 O.3  1941  WAT1941    -0.4105
   5819  H1        16.0680    7.0990   12.4770 H    1941  WAT1941     0.2052
   5820  H2        17.1990    8.0430   12.1280 H    1941  WAT1941     0.2052
   5821  O          2.8720    5.3830    1.4730 O.3  1942  WAT1942    -0.4105
   5822  H1         3.5820    4.9610    0.9880 H    1942  WAT1942     0.2052
   5823  H2         2.1560    5.4510    0.8410 H    1942  WAT1942     0.2052
   5824  O          2.5200    1.4370    0.5130 O.3  1943  WAT1943    -0.4105
   5825  H1         3.2430    1.9780    0.8310 H    1943  WAT1943     0.2052
   5826  H2         2.7920    1.1630   -0.3630 H    1943  WAT1943     0.2052
   5827  O         16.3290    6.3060    4.7800 O.3  1944  WAT1944    -0.4105
   5828  H1        16.8250    6.0730    5.5650 H    1944  WAT1944     0.2052
   5829  H2        16.1310    5.4670    4.3640 H    1944  WAT1944     0.2052
   5830  O          2.2090    0.6880   10.4150 O.3  1945  WAT1945    -0.4105
   5831  H1         2.8570    0.1370    9.9750 H    1945  WAT1945     0.2052
   5832  H2         2.6290    0.9420   11.2370 H    1945  WAT1945     0.2052
   5833  O         17.7580    4.9420    7.3140 O.3  1946  WAT1946    -0.4105
   5834  H1        17.6480    4.7880    8.2520 H    1946  WAT1946     0.2052
   5835  H2        18.5180    4.4140    7.0720 H    1946  WAT1946     0.2052
   5836  O         16.1040    0.8820   13.7720 O.3  1947  WAT1947    -0.4105
   5837  H1        16.7410    1.4950   14.1380 H    1947  WAT1947     0.2052
   5838  H2        16.2520    0.9180   12.8270 H    1947  WAT1947     0.2052
   5839  O         18.6470    2.7730    0.5550 O.3  1948  WAT1948    -0.4105
   5840  H1        19.5720    2.6410    0.3460 H    1948  WAT1948     0.2052
   5841  H2        18.6240    2.8520    1.5080 H    1948  WAT1948     0.2052
   5842  O         18.7210    3.5440    3.1800 O.3  1949  WAT1949    -0.4105
   5843  H1        17.9260    3.4790    3.7100 H    1949  WAT1949     0.2052
   5844  H2        18.9250    4.4790    3.1690 H    1949  WAT1949     0.2052
   5845  O         15.6620   17.5830    7.1740 O.3  1950  WAT1950    -0.4105
   5846  H1        16.2580   17.2620    6.4980 H    1950  WAT1950     0.2052
   5847  H2        15.9200   17.1110    7.9650 H    1950  WAT1950     0.2052
   5848  O          1.9620    0.8430   13.1580 O.3  1951  WAT1951    -0.4105
   5849  H1         1.6140    1.3000   13.9240 H    1951  WAT1951     0.2052
   5850  H2         1.6310   -0.0510   13.2400 H    1951  WAT1951     0.2052
   5851  O          3.5690   14.0150   17.3230 O.3  1952  WAT1952    -0.4105
   5852  H1         3.5260   13.6440   18.2050 H    1952  WAT1952     0.2052
   5853  H2         3.7000   14.9530   17.4630 H    1952  WAT1952     0.2052
   5854  O          7.2690   15.5710   12.9240 O.3  1953  WAT1953    -0.4105
   5855  H1         7.0280   15.8390   12.0370 H    1953  WAT1953     0.2052
   5856  H2         8.2100   15.7420   12.9790 H    1953  WAT1953     0.2052
   5857  O          9.4750    2.0340   16.6800 O.3  1954  WAT1954    -0.4105
   5858  H1         9.4140    2.6270   17.4290 H    1954  WAT1954     0.2052
   5859  H2        10.4150    1.9270   16.5350 H    1954  WAT1954     0.2052
   5860  O         12.1120    1.6910   16.3190 O.3  1955  WAT1955    -0.4105
   5861  H1        12.7260    2.0090   15.6570 H    1955  WAT1955     0.2052
   5862  H2        12.6570    1.2060   16.9390 H    1955  WAT1955     0.2052
   5863  O         18.5300   17.5910   13.7250 O.3  1956  WAT1956    -0.4105
   5864  H1        18.0350   17.9870   13.0080 H    1956  WAT1956     0.2052
   5865  H2        17.9210   16.9660   14.1190 H    1956  WAT1956     0.2052
   5866  O          2.6340    0.3710   16.4330 O.3  1957  WAT1957    -0.4105
   5867  H1         3.1830    0.1900   15.6700 H    1957  WAT1957     0.2052
   5868  H2         2.7000   -0.4200   16.9690 H    1957  WAT1957     0.2052
   5869  O          3.4070   16.9610   14.4430 O.3  1958  WAT1958    -0.4105
   5870  H1         2.8130   16.8300   15.1820 H    1958  WAT1958     0.2052
   5871  H2         3.4000   16.1250   13.9770 H    1958  WAT1958     0.2052
   5872  O         12.8530    0.2550   12.6460 O.3  1959  WAT1959    -0.4105
   5873  H1        11.9790    0.5880   12.4430 H    1959  WAT1959     0.2052
   5874  H2        12.7440   -0.2180   13.4710 H    1959  WAT1959     0.2052
   5875  O         13.7600    2.4620   14.0300 O.3  1960  WAT1960    -0.4105
   5876  H1        13.4310    1.6470   13.6500 H    1960  WAT1960     0.2052
   5877  H2        14.7080    2.4190   13.9070 H    1960  WAT1960     0.2052
   5878  O         16.2140   18.2330   11.0040 O.3  1961  WAT1961    -0.4105
   5879  H1        15.7540   18.9850   10.6300 H    1961  WAT1961     0.2052
   5880  H2        15.5850   17.5140   10.9450 H    1961  WAT1961     0.2052
   5881  O          3.0390   14.3270   13.3940 O.3  1962  WAT1962    -0.4105
   5882  H1         2.3120   13.7080   13.3260 H    1962  WAT1962     0.2052
   5883  H2         3.1000   14.7210   12.5240 H    1962  WAT1962     0.2052
   5884  O          6.6430   16.5420   10.1790 O.3  1963  WAT1963    -0.4105
   5885  H1         7.1600   15.9300    9.6540 H    1963  WAT1963     0.2052
   5886  H2         7.2930   17.0450   10.6700 H    1963  WAT1963     0.2052
   5887  O          9.3830   17.4330   11.0060 O.3  1964  WAT1964    -0.4105
   5888  H1         9.6710   17.1780   10.1290 H    1964  WAT1964     0.2052
   5889  H2         9.8950   16.8800   11.5960 H    1964  WAT1964     0.2052
   5890  O         10.6000    1.1720   11.5850 O.3  1965  WAT1965    -0.4105
   5891  H1         9.8180    1.6460   11.8650 H    1965  WAT1965     0.2052
   5892  H2        10.3070    0.2670   11.4770 H    1965  WAT1965     0.2052
   5893  O         15.1530    1.8740    9.6300 O.3  1966  WAT1966    -0.4105
   5894  H1        15.5930    1.8180    8.7820 H    1966  WAT1966     0.2052
   5895  H2        14.8830    2.7900    9.7010 H    1966  WAT1966     0.2052
   5896  O         17.0160    1.5050    7.6410 O.3  1967  WAT1967    -0.4105
   5897  H1        16.9550    0.5620    7.4940 H    1967  WAT1967     0.2052
   5898  H2        17.7960    1.6130    8.1860 H    1967  WAT1967     0.2052
   5899  O          1.3220   17.6450    6.6030 O.3  1968  WAT1968    -0.4105
   5900  H1         1.1540   17.0120    7.3020 H    1968  WAT1968     0.2052
   5901  H2         0.4550   17.8510    6.2530 H    1968  WAT1968     0.2052
   5902  O          1.9440    1.4760    4.1070 O.3  1969  WAT1969    -0.4105
   5903  H1         2.7020    1.5890    3.5330 H    1969  WAT1969     0.2052
   5904  H2         1.4820    2.3130    4.0610 H    1969  WAT1969     0.2052
   5905  O          8.4860    3.5900    7.0970 O.3  1970  WAT1970    -0.4105
   5906  H1         7.6730    3.2160    6.7560 H    1970  WAT1970     0.2052
   5907  H2         8.9900    2.8350    7.3990 H    1970  WAT1970     0.2052
   5908  O         12.9880    0.2550    8.3350 O.3  1971  WAT1971    -0.4105
   5909  H1        13.5910    0.8270    8.8100 H    1971  WAT1971     0.2052
   5910  H2        12.2480    0.8180    8.1130 H    1971  WAT1971     0.2052
   5911  O         16.1320    0.6570    3.6090 O.3  1972  WAT1972    -0.4105
   5912  H1        16.3270    1.5550    3.8760 H    1972  WAT1972     0.2052
   5913  H2        15.3450    0.4250    4.1020 H    1972  WAT1972     0.2052
   5914  O          2.9280   16.3380    4.0480 O.3  1973  WAT1973    -0.4105
   5915  H1         2.4030   16.7190    3.3450 H    1973  WAT1973     0.2052
   5916  H2         2.8520   16.9630    4.7690 H    1973  WAT1973     0.2052
   5917  O          4.3170    2.0030    2.6470 O.3  1974  WAT1974    -0.4105
   5918  H1         4.8460    1.2160    2.5180 H    1974  WAT1974     0.2052
   5919  H2         4.9500    2.6820    2.8800 H    1974  WAT1974     0.2052
   5920  O          6.5110    1.7400    5.7010 O.3  1975  WAT1975    -0.4105
   5921  H1         5.8810    1.0390    5.8680 H    1975  WAT1975     0.2052
   5922  H2         5.9710    2.5010    5.4850 H    1975  WAT1975     0.2052
   5923  O          9.4500   18.3540   18.3720 O.3  1976  WAT1976    -0.4105
   5924  H1        10.3770   18.1190   18.4160 H    1976  WAT1976     0.2052
   5925  H2         9.4350   19.1810   17.8910 H    1976  WAT1976     0.2052
   5926  O         17.6840   17.8970    5.3700 O.3  1977  WAT1977    -0.4105
   5927  H1        17.8600   17.2110    4.7260 H    1977  WAT1977     0.2052
   5928  H2        16.9870   18.4210    4.9770 H    1977  WAT1977     0.2052
   5929  O          6.6360    1.0190   18.1370 O.3  1978  WAT1978    -0.4105
   5930  H1         6.3550    1.5220   17.3730 H    1978  WAT1978     0.2052
   5931  H2         7.0180    0.2210   17.7710 H    1978  WAT1978     0.2052
   5932  O          5.5270   18.2860    2.9230 O.3  1979  WAT1979    -0.4105
   5933  H1         6.2590   18.0020    2.3760 H    1979  WAT1979     0.2052
   5934  H2         5.7870   18.0480    3.8130 H    1979  WAT1979     0.2052
   5935  O          4.6890   14.4030    2.9280 O.3  1980  WAT1980    -0.4105
   5936  H1         4.0600   14.8710    3.4770 H    1980  WAT1980     0.2052
   5937  H2         4.8030   13.5580    3.3630 H    1980  WAT1980     0.2052
   5938  O         13.2380    0.4340   18.7150 O.3  1981  WAT1981    -0.4105
   5939  H1        13.1240    0.7540   19.6100 H    1981  WAT1981     0.2052
   5940  H2        14.0550    0.8350   18.4180 H    1981  WAT1981     0.2052
   5941  O         16.0180   17.5810   18.1960 O.3  1982  WAT1982    -0.4105
   5942  H1        16.8100   17.0860   17.9890 H    1982  WAT1982     0.2052
   5943  H2        16.3110   18.2600   18.8040 H    1982  WAT1982     0.2052
   5944  O         12.1440    8.4530  -10.9220 O.3  1983  WAT1983    -0.4105
   5945  H1        12.0630    7.5390  -11.1930 H    1983  WAT1983     0.2052
   5946  H2        11.7300    8.9500  -11.6280 H    1983  WAT1983     0.2052
   5947  O         10.2750   10.2310   -9.0410 O.3  1984  WAT1984    -0.4105
   5948  H1         9.5000    9.7510   -8.7510 H    1984  WAT1984     0.2052
   5949  H2        10.9270    9.5520   -9.2150 H    1984  WAT1984     0.2052
   5950  O          4.2920   10.5430   -8.1630 O.3  1985  WAT1985    -0.4105
   5951  H1         3.4610   10.2880   -7.7640 H    1985  WAT1985     0.2052
   5952  H2         4.9000   10.6140   -7.4280 H    1985  WAT1985     0.2052
   5953  O         14.2960   14.6370  -10.2610 O.3  1986  WAT1986    -0.4105
   5954  H1        13.8340   13.8660   -9.9320 H    1986  WAT1986     0.2052
   5955  H2        15.1090   14.6640   -9.7560 H    1986  WAT1986     0.2052
   5956  O          4.2720   14.5770   -7.9680 O.3  1987  WAT1987    -0.4105
   5957  H1         4.5750   13.6870   -8.1470 H    1987  WAT1987     0.2052
   5958  H2         5.0170   15.1340   -8.1950 H    1987  WAT1987     0.2052
   5959  O          2.7010    5.5030  -14.3790 O.3  1988  WAT1988    -0.4105
   5960  H1         1.8130    5.8450  -14.4810 H    1988  WAT1988     0.2052
   5961  H2         2.9850    5.3030  -15.2710 H    1988  WAT1988     0.2052
   5962  O          0.6650    8.1040   -8.4950 O.3  1989  WAT1989    -0.4105
   5963  H1         1.2360    7.3360   -8.4950 H    1989  WAT1989     0.2052
   5964  H2         0.6650    8.4030   -9.4050 H    1989  WAT1989     0.2052
   5965  O         10.5230   16.9230  -10.6410 O.3  1990  WAT1990    -0.4105
   5966  H1         9.9040   17.3790  -11.2110 H    1990  WAT1990     0.2052
   5967  H2        11.3780   17.0780  -11.0420 H    1990  WAT1990     0.2052
   5968  O          9.7160   12.9070   -9.0340 O.3  1991  WAT1991    -0.4105
   5969  H1         9.6470   11.9660   -9.1950 H    1991  WAT1991     0.2052
   5970  H2        10.4780   12.9970   -8.4620 H    1991  WAT1991     0.2052
   5971  O          1.9070    3.5120   -6.7080 O.3  1992  WAT1992    -0.4105
   5972  H1         1.7270    2.6150   -6.4280 H    1992  WAT1992     0.2052
   5973  H2         1.5050    4.0600   -6.0340 H    1992  WAT1992     0.2052
   5974  O         10.7470    5.7140   -8.8070 O.3  1993  WAT1993    -0.4105
   5975  H1        11.1230    4.8410   -8.9200 H    1993  WAT1993     0.2052
   5976  H2        10.6490    6.0500   -9.6980 H    1993  WAT1993     0.2052
   5977  O          4.8770    4.0870  -13.3450 O.3  1994  WAT1994    -0.4105
   5978  H1         4.9840    4.9870  -13.0380 H    1994  WAT1994     0.2052
   5979  H2         3.9670    4.0380  -13.6360 H    1994  WAT1994     0.2052
   5980  O         14.5290    3.2090  -11.8740 O.3  1995  WAT1995    -0.4105
   5981  H1        15.3500    2.7190  -11.8320 H    1995  WAT1995     0.2052
   5982  H2        14.5630    3.7990  -11.1210 H    1995  WAT1995     0.2052
   5983  O          2.5260    6.0080   -8.1000 O.3  1996  WAT1996    -0.4105
   5984  H1         3.2070    6.2720   -7.4810 H    1996  WAT1996     0.2052
   5985  H2         2.2110    5.1690   -7.7660 H    1996  WAT1996     0.2052
   5986  O          6.7180    7.0550   -9.0130 O.3  1997  WAT1997    -0.4105
   5987  H1         7.2260    7.5530   -8.3720 H    1997  WAT1997     0.2052
   5988  H2         7.2500    6.2790   -9.1890 H    1997  WAT1997     0.2052
   5989  O         18.8190    5.2260   -5.3100 O.3  1998  WAT1998    -0.4105
   5990  H1        18.1140    5.6140   -5.8280 H    1998  WAT1998     0.2052
   5991  H2        19.0850    5.9210   -4.7080 H    1998  WAT1998     0.2052
   5992  O          5.0020    1.6950   -4.7460 O.3  1999  WAT1999    -0.4105
   5993  H1         5.0040    2.2120   -5.5520 H    1999  WAT1999     0.2052
   5994  H2         4.1720    1.2180   -4.7690 H    1999  WAT1999     0.2052
   5995  O         11.3890   11.8070  -13.2470 O.3  2000  WAT2000    -0.4105
   5996  H1        10.7710   12.2720  -13.8110 H    2000  WAT2000     0.2052
   5997  H2        11.9010   12.5000  -12.8310 H    2000  WAT2000     0.2052
   5998  O          6.2520   11.3350   -6.5690 O.3  2001  WAT2001    -0.4105
   5999  H1         5.9190   11.9610   -5.9270 H    2001  WAT2001     0.2052
   6000  H2         6.4290   11.8610   -7.3490 H    2001  WAT2001     0.2052
   6001  O         14.7650    5.1490   -9.1010 O.3  2002  WAT2002    -0.4105
   6002  H1        14.0610    5.4380   -8.5210 H    2002  WAT2002     0.2052
   6003  H2        15.1270    5.9590   -9.4620 H    2002  WAT2002     0.2052
   6004  O          4.6830    3.4060   -6.7390 O.3  2003  WAT2003    -0.4105
   6005  H1         5.0250    4.2500   -7.0340 H    2003  WAT2003     0.2052
   6006  H2         3.7450    3.5540   -6.6230 H    2003  WAT2003     0.2052
   6007  O          5.4640   13.3030   -4.7540 O.3  2004  WAT2004    -0.4105
   6008  H1         6.0810   13.9780   -5.0360 H    2004  WAT2004     0.2052
   6009  H2         4.6030   13.7110   -4.8450 H    2004  WAT2004     0.2052
   6010  O          0.7570   12.4930  -15.8740 O.3  2005  WAT2005    -0.4105
   6011  H1         0.3800   12.9810  -16.6050 H    2005  WAT2005     0.2052
   6012  H2         1.0150   13.1650  -15.2430 H    2005  WAT2005     0.2052
   6013  O         16.3820   14.7670   -6.8390 O.3  2006  WAT2006    -0.4105
   6014  H1        15.6980   15.4360   -6.8470 H    2006  WAT2006     0.2052
   6015  H2        16.9210   14.9650   -7.6040 H    2006  WAT2006     0.2052
   6016  O         17.8340    4.5950   -8.7110 O.3  2007  WAT2007    -0.4105
   6017  H1        16.8870    4.6280   -8.5790 H    2007  WAT2007     0.2052
   6018  H2        18.1590    5.4080   -8.3260 H    2007  WAT2007     0.2052
   6019  O          8.3660    0.8940  -10.4150 O.3  2008  WAT2008    -0.4105
   6020  H1         8.6740    0.3390  -11.1310 H    2008  WAT2008     0.2052
   6021  H2         7.4360    1.0290  -10.5980 H    2008  WAT2008     0.2052
   6022  O         13.9180   16.6110   -8.1240 O.3  2009  WAT2009    -0.4105
   6023  H1        13.9300   16.2070   -8.9920 H    2009  WAT2009     0.2052
   6024  H2        13.3650   17.3860   -8.2280 H    2009  WAT2009     0.2052
   6025  O         15.2120   13.3330  -13.0350 O.3  2010  WAT2010    -0.4105
   6026  H1        15.1020   12.3900  -12.9100 H    2010  WAT2010     0.2052
   6027  H2        15.2090   13.6940  -12.1490 H    2010  WAT2010     0.2052
   6028  O         13.3160   11.5140   -6.7960 O.3  2011  WAT2011    -0.4105
   6029  H1        13.7330   11.3000   -7.6310 H    2011  WAT2011     0.2052
   6030  H2        14.0400   11.7710   -6.2250 H    2011  WAT2011     0.2052
   6031  O         10.7540    8.9590  -13.6790 O.3  2012  WAT2012    -0.4105
   6032  H1         9.8270    8.8930  -13.4500 H    2012  WAT2012     0.2052
   6033  H2        10.9070    9.8970  -13.7930 H    2012  WAT2012     0.2052
   6034  O         10.7410    5.2310  -16.6820 O.3  2013  WAT2013    -0.4105
   6035  H1         9.8010    5.3920  -16.5970 H    2013  WAT2013     0.2052
   6036  H2        11.0590    5.9490  -17.2290 H    2013  WAT2013     0.2052
   6037  O         17.2620    9.9130   -6.7040 O.3  2014  WAT2014    -0.4105
   6038  H1        16.4340    9.9820   -7.1790 H    2014  WAT2014     0.2052
   6039  H2        17.8570   10.4980   -7.1730 H    2014  WAT2014     0.2052
   6040  O         14.7840   10.5210  -13.1750 O.3  2015  WAT2015    -0.4105
   6041  H1        14.1650   10.1830  -13.8230 H    2015  WAT2015     0.2052
   6042  H2        14.7660    9.8770  -12.4670 H    2015  WAT2015     0.2052
   6043  O         14.2270    6.7000   -5.7590 O.3  2016  WAT2016    -0.4105
   6044  H1        13.8140    7.5250   -5.5050 H    2016  WAT2016     0.2052
   6045  H2        13.4940    6.1140   -5.9510 H    2016  WAT2016     0.2052
   6046  O          6.3600    9.4860  -10.8970 O.3  2017  WAT2017    -0.4105
   6047  H1         5.9560    8.7730  -11.3920 H    2017  WAT2017     0.2052
   6048  H2         6.4460    9.1410  -10.0080 H    2017  WAT2017     0.2052
   6049  O          6.8280   13.1720   -8.7330 O.3  2018  WAT2018    -0.4105
   6050  H1         6.5310   12.5670   -9.4120 H    2018  WAT2018     0.2052
   6051  H2         7.7780   13.2100   -8.8440 H    2018  WAT2018     0.2052
   6052  O          5.0730    6.2600   -7.1170 O.3  2019  WAT2019    -0.4105
   6053  H1         5.6240    6.3690   -7.8920 H    2019  WAT2019     0.2052
   6054  H2         5.5870    6.6340   -6.4020 H    2019  WAT2019     0.2052
   6055  O         14.9170   16.7460   -5.0710 O.3  2020  WAT2020    -0.4105
   6056  H1        14.4400   17.5530   -5.2630 H    2020  WAT2020     0.2052
   6057  H2        14.2330   16.0930   -4.9180 H    2020  WAT2020     0.2052
   6058  O          5.9200   12.9110   -2.0820 O.3  2021  WAT2021    -0.4105
   6059  H1         5.0230   13.1350   -1.8350 H    2021  WAT2021     0.2052
   6060  H2         5.9450   13.0340   -3.0310 H    2021  WAT2021     0.2052
   6061  O         12.9600    9.7600  -16.1680 O.3  2022  WAT2022    -0.4105
   6062  H1        13.4000    8.9220  -16.3140 H    2022  WAT2022     0.2052
   6063  H2        13.6730   10.3930  -16.0820 H    2022  WAT2022     0.2052
   6064  O          4.7470    9.7820   -3.5070 O.3  2023  WAT2023    -0.4105
   6065  H1         4.6080   10.6540   -3.1380 H    2023  WAT2023     0.2052
   6066  H2         3.8650    9.4390   -3.6520 H    2023  WAT2023     0.2052
   6067  O         11.0700   14.6990  -12.2000 O.3  2024  WAT2024    -0.4105
   6068  H1        11.5100   15.4420  -12.6140 H    2024  WAT2024     0.2052
   6069  H2        11.0090   14.9420  -11.2760 H    2024  WAT2024     0.2052
   6070  O          6.5450   15.7240   -1.2980 O.3  2025  WAT2025    -0.4105
   6071  H1         6.5170   16.1280   -2.1650 H    2025  WAT2025     0.2052
   6072  H2         6.3820   14.7950   -1.4610 H    2025  WAT2025     0.2052
   6073  O         16.5420    1.0140  -17.8540 O.3  2026  WAT2026    -0.4105
   6074  H1        16.2290    1.1070  -16.9540 H    2026  WAT2026     0.2052
   6075  H2        17.3030    1.5920  -17.9040 H    2026  WAT2026     0.2052
   6076  O          3.0600    8.3800  -13.3960 O.3  2027  WAT2027    -0.4105
   6077  H1         2.9400    9.1060  -14.0080 H    2027  WAT2027     0.2052
   6078  H2         2.7500    7.6100  -13.8740 H    2027  WAT2027     0.2052
   6079  O         18.4970   16.5070   -0.0020 O.3  2028  WAT2028    -0.4105
   6080  H1        18.9720   16.9850    0.6770 H    2028  WAT2028     0.2052
   6081  H2        19.1170   16.4380   -0.7270 H    2028  WAT2028     0.2052
   6082  O          0.6990   11.5520   -7.5890 O.3  2029  WAT2029    -0.4105
   6083  H1         0.7770   11.6860   -8.5340 H    2029  WAT2029     0.2052
   6084  H2         1.3130   10.8430   -7.3970 H    2029  WAT2029     0.2052
   6085  O          1.9440   13.2520  -11.1790 O.3  2030  WAT2030    -0.4105
   6086  H1         1.5360   13.3930  -12.0330 H    2030  WAT2030     0.2052
   6087  H2         2.8350   12.9680  -11.3820 H    2030  WAT2030     0.2052
   6088  O         17.9000   13.6980   -2.8420 O.3  2031  WAT2031    -0.4105
   6089  H1        18.0260   13.4590   -3.7600 H    2031  WAT2031     0.2052
   6090  H2        17.9420   12.8660   -2.3690 H    2031  WAT2031     0.2052
   6091  O         11.7620   17.4010   -4.2720 O.3  2032  WAT2032    -0.4105
   6092  H1        12.2760   17.3120   -3.4700 H    2032  WAT2032     0.2052
   6093  H2        10.9180   17.7470   -3.9790 H    2032  WAT2032     0.2052
   6094  O         13.7370   17.6860  -14.8440 O.3  2033  WAT2033    -0.4105
   6095  H1        13.5770   17.3970  -13.9460 H    2033  WAT2033     0.2052
   6096  H2        13.5720   16.9100  -15.3790 H    2033  WAT2033     0.2052
   6097  O          6.2160   17.4660  -13.0670 O.3  2034  WAT2034    -0.4105
   6098  H1         6.0400   16.5500  -13.2800 H    2034  WAT2034     0.2052
   6099  H2         5.3610   17.8250  -12.8270 H    2034  WAT2034     0.2052
   6100  O         13.4400   15.1950  -16.2840 O.3  2035  WAT2035    -0.4105
   6101  H1        12.7460   15.1930  -16.9440 H    2035  WAT2035     0.2052
   6102  H2        14.1820   14.7710  -16.7140 H    2035  WAT2035     0.2052
   6103  O         13.0050   16.8210  -12.2090 O.3  2036  WAT2036    -0.4105
   6104  H1        13.4600   16.0400  -11.8950 H    2036  WAT2036     0.2052
   6105  H2        13.3440   17.5320  -11.6650 H    2036  WAT2036     0.2052
   6106  O         17.7520    5.7510   -1.8770 O.3  2037  WAT2037    -0.4105
   6107  H1        17.1370    6.2590   -2.4050 H    2037  WAT2037     0.2052
   6108  H2        17.4320    4.8510   -1.9340 H    2037  WAT2037     0.2052
   6109  O          0.7550   12.5930   -5.0500 O.3  2038  WAT2038    -0.4105
   6110  H1         0.9180   12.1240   -5.8680 H    2038  WAT2038     0.2052
   6111  H2         1.2200   12.0850   -4.3850 H    2038  WAT2038     0.2052
   6112  O          5.5270    1.7240  -10.0140 O.3  2039  WAT2039    -0.4105
   6113  H1         5.0830    2.5050  -10.3450 H    2039  WAT2039     0.2052
   6114  H2         6.0850    2.0470   -9.3070 H    2039  WAT2039     0.2052
   6115  O          9.8140    4.5900   -4.4100 O.3  2040  WAT2040    -0.4105
   6116  H1         9.3520    4.7990   -3.5980 H    2040  WAT2040     0.2052
   6117  H2         9.4110    3.7760   -4.7130 H    2040  WAT2040     0.2052
   6118  O         14.8140    5.8110   -3.2810 O.3  2041  WAT2041    -0.4105
   6119  H1        13.9630    5.5120   -2.9600 H    2041  WAT2041     0.2052
   6120  H2        14.6540    6.0560   -4.1920 H    2041  WAT2041     0.2052
   6121  O         11.9090    7.3120   -1.1810 O.3  2042  WAT2042    -0.4105
   6122  H1        12.2340    6.4780   -1.5210 H    2042  WAT2042     0.2052
   6123  H2        12.6970    7.8340   -1.0330 H    2042  WAT2042     0.2052
   6124  O          8.6430    1.3450  -15.1330 O.3  2043  WAT2043    -0.4105
   6125  H1         8.0180    1.3410  -14.4080 H    2043  WAT2043     0.2052
   6126  H2         8.5560    0.4780  -15.5300 H    2043  WAT2043     0.2052
   6127  O          7.5640    2.2680   -8.1550 O.3  2044  WAT2044    -0.4105
   6128  H1         7.8620    3.1750   -8.2360 H    2044  WAT2044     0.2052
   6129  H2         8.1130    1.7800   -8.7690 H    2044  WAT2044     0.2052
   6130  O          5.3180    6.8470  -12.2860 O.3  2045  WAT2045    -0.4105
   6131  H1         5.0920    6.6310  -11.3810 H    2045  WAT2045     0.2052
   6132  H2         4.5370    7.2800  -12.6310 H    2045  WAT2045     0.2052
   6133  O         12.5480    6.8530  -13.6870 O.3  2046  WAT2046    -0.4105
   6134  H1        11.9490    7.5770  -13.8700 H    2046  WAT2046     0.2052
   6135  H2        13.0960    6.7910  -14.4690 H    2046  WAT2046     0.2052
   6136  O          7.7580    7.7460   -1.6200 O.3  2047  WAT2047    -0.4105
   6137  H1         7.6620    6.8050   -1.7700 H    2047  WAT2047     0.2052
   6138  H2         8.6010    7.9670   -2.0150 H    2047  WAT2047     0.2052
   6139  O         11.1540    5.4900  -11.6560 O.3  2048  WAT2048    -0.4105
   6140  H1        11.5470    5.8070  -12.4700 H    2048  WAT2048     0.2052
   6141  H2        11.5160    4.6110  -11.5420 H    2048  WAT2048     0.2052
   6142  O          2.8890    4.1570   -3.4660 O.3  2049  WAT2049    -0.4105
   6143  H1         2.4950    5.0040   -3.2590 H    2049  WAT2049     0.2052
   6144  H2         2.2010    3.5200   -3.2760 H    2049  WAT2049     0.2052
   6145  O          9.4640    4.2400   -0.3970 O.3  2050  WAT2050    -0.4105
   6146  H1         8.7730    4.0480    0.2380 H    2050  WAT2050     0.2052
   6147  H2        10.2070    4.5240    0.1360 H    2050  WAT2050     0.2052
   6148  O          0.1910    2.0800   -9.4330 O.3  2051  WAT2051    -0.4105
   6149  H1        -0.0980    2.6500   -8.7210 H    2051  WAT2051     0.2052
   6150  H2         0.9350    1.6000   -9.0700 H    2051  WAT2051     0.2052
   6151  O          0.3780    6.0220  -18.2230 O.3  2052  WAT2052    -0.4105
   6152  H1         0.2950    6.9650  -18.0820 H    2052  WAT2052     0.2052
   6153  H2         0.0260    5.8790  -19.1020 H    2052  WAT2052     0.2052
   6154  O         11.7400    8.0800   -7.5610 O.3  2053  WAT2053    -0.4105
   6155  H1        11.0080    8.5890   -7.2120 H    2053  WAT2053     0.2052
   6156  H2        11.3420    7.2630   -7.8620 H    2053  WAT2053     0.2052
   6157  O          8.1780    4.7560   -9.1560 O.3  2054  WAT2054    -0.4105
   6158  H1         8.1810    4.3150  -10.0060 H    2054  WAT2054     0.2052
   6159  H2         9.0730    5.0770   -9.0490 H    2054  WAT2054     0.2052
   6160  O          4.0280    4.6380  -10.1970 O.3  2055  WAT2055    -0.4105
   6161  H1         3.6880    5.1160   -9.4400 H    2055  WAT2055     0.2052
   6162  H2         3.2660    4.1850  -10.5570 H    2055  WAT2055     0.2052
   6163  O          8.2400    5.7570  -16.1650 O.3  2056  WAT2056    -0.4105
   6164  H1         8.3610    5.7160  -15.2170 H    2056  WAT2056     0.2052
   6165  H2         7.8540    6.6190  -16.3210 H    2056  WAT2056     0.2052
   6166  O         12.2020    3.5340   -8.1490 O.3  2057  WAT2057    -0.4105
   6167  H1        12.2200    3.9840   -7.3050 H    2057  WAT2057     0.2052
   6168  H2        11.9540    2.6340   -7.9360 H    2057  WAT2057     0.2052
   6169  O          7.2520    8.0670  -16.7670 O.3  2058  WAT2058    -0.4105
   6170  H1         6.6830    7.6190  -17.3930 H    2058  WAT2058     0.2052
   6171  H2         7.9610    8.4260  -17.3010 H    2058  WAT2058     0.2052
   6172  O         15.6300    0.9470   -2.3100 O.3  2059  WAT2059    -0.4105
   6173  H1        15.9540    0.2160   -1.7850 H    2059  WAT2059     0.2052
   6174  H2        15.6650    0.6280   -3.2120 H    2059  WAT2059     0.2052
   6175  O          2.3290   11.9680   -2.8900 O.3  2060  WAT2060    -0.4105
   6176  H1         1.9440   11.3280   -2.2920 H    2060  WAT2060     0.2052
   6177  H2         2.6400   12.6720   -2.3210 H    2060  WAT2060     0.2052
   6178  O          8.4780    8.8160   -7.4100 O.3  2061  WAT2061    -0.4105
   6179  H1         8.8450    8.3420   -6.6630 H    2061  WAT2061     0.2052
   6180  H2         8.2890    9.6900   -7.0690 H    2061  WAT2061     0.2052
   6181  O          1.3420    3.5600  -11.2800 O.3  2062  WAT2062    -0.4105
   6182  H1         1.0570    3.1960  -10.4420 H    2062  WAT2062     0.2052
   6183  H2         1.2800    2.8280  -11.8940 H    2062  WAT2062     0.2052
   6184  O          6.2680    7.8570   -5.0910 O.3  2063  WAT2063    -0.4105
   6185  H1         5.9640    8.7360   -4.8660 H    2063  WAT2063     0.2052
   6186  H2         7.2230    7.9170   -5.0550 H    2063  WAT2063     0.2052
   6187  O          4.7970   12.0630  -14.4940 O.3  2064  WAT2064    -0.4105
   6188  H1         4.0230   11.5230  -14.6550 H    2064  WAT2064     0.2052
   6189  H2         5.5260   11.5430  -14.8330 H    2064  WAT2064     0.2052
   6190  O         15.5550   11.0590   -8.7020 O.3  2065  WAT2065    -0.4105
   6191  H1        16.2750   11.5550   -9.0920 H    2065  WAT2065     0.2052
   6192  H2        15.3540   10.3810   -9.3460 H    2065  WAT2065     0.2052
   6193  O         11.0160    2.4530  -14.5590 O.3  2066  WAT2066    -0.4105
   6194  H1        10.2030    1.9540  -14.6340 H    2066  WAT2066     0.2052
   6195  H2        10.8230    3.2930  -14.9750 H    2066  WAT2066     0.2052
   6196  O         10.9370   11.1300   -2.8150 O.3  2067  WAT2067    -0.4105
   6197  H1        10.8710   10.2100   -3.0690 H    2067  WAT2067     0.2052
   6198  H2        10.3080   11.2280   -2.1000 H    2067  WAT2067     0.2052
   6199  O         13.7310    6.8250  -16.2630 O.3  2068  WAT2068    -0.4105
   6200  H1        14.6190    7.1370  -16.4380 H    2068  WAT2068     0.2052
   6201  H2        13.7020    5.9520  -16.6550 H    2068  WAT2068     0.2052
   6202  O          4.8400   11.7310  -10.8570 O.3  2069  WAT2069    -0.4105
   6203  H1         5.3580   10.9280  -10.9110 H    2069  WAT2069     0.2052
   6204  H2         4.3890   11.6690  -10.0150 H    2069  WAT2069     0.2052
   6205  O          9.7270   12.9970  -15.5840 O.3  2070  WAT2070    -0.4105
   6206  H1        10.0690   13.7420  -16.0790 H    2070  WAT2070     0.2052
   6207  H2         8.8980   13.3110  -15.2210 H    2070  WAT2070     0.2052
   6208  O          2.3250    8.6970   -3.9440 O.3  2071  WAT2071    -0.4105
   6209  H1         1.9660    9.3620   -3.3570 H    2071  WAT2071     0.2052
   6210  H2         2.0300    7.8650   -3.5730 H    2071  WAT2071     0.2052
   6211  O          5.5260    9.1550   -1.0600 O.3  2072  WAT2072    -0.4105
   6212  H1         5.2260    9.3010   -1.9570 H    2072  WAT2072     0.2052
   6213  H2         6.2970    8.5960   -1.1530 H    2072  WAT2072     0.2052
   6214  O         10.8690   13.9520   -3.0650 O.3  2073  WAT2073    -0.4105
   6215  H1        10.8830   13.0200   -3.2830 H    2073  WAT2073     0.2052
   6216  H2        10.1610   14.0380   -2.4260 H    2073  WAT2073     0.2052
   6217  O         16.0030    8.1360  -16.7950 O.3  2074  WAT2074    -0.4105
   6218  H1        15.9190    8.5680  -17.6450 H    2074  WAT2074     0.2052
   6219  H2        16.7220    8.5960  -16.3620 H    2074  WAT2074     0.2052
   6220  O         17.0800   10.5930   -3.7180 O.3  2075  WAT2075    -0.4105
   6221  H1        16.3550   11.1860   -3.9150 H    2075  WAT2075     0.2052
   6222  H2        17.6080   10.5850   -4.5160 H    2075  WAT2075     0.2052
   6223  O         17.0310   14.9900  -14.0660 O.3  2076  WAT2076    -0.4105
   6224  H1        16.3890   14.3360  -13.7920 H    2076  WAT2076     0.2052
   6225  H2        16.6440   15.3960  -14.8420 H    2076  WAT2076     0.2052
   6226  O         12.6100   12.3190  -10.2190 O.3  2077  WAT2077    -0.4105
   6227  H1        12.9620   11.7220  -10.8790 H    2077  WAT2077     0.2052
   6228  H2        11.7260   11.9930  -10.0480 H    2077  WAT2077     0.2052
   6229  O          8.6960   13.0790  -12.8120 O.3  2078  WAT2078    -0.4105
   6230  H1         9.3830   13.6260  -12.4310 H    2078  WAT2078     0.2052
   6231  H2         7.9100   13.6230  -12.7770 H    2078  WAT2078     0.2052
   6232  O          0.8360    8.6960  -17.3210 O.3  2079  WAT2079    -0.4105
   6233  H1         1.7050    8.9790  -17.0370 H    2079  WAT2079     0.2052
   6234  H2         0.3450    9.5100  -17.4360 H    2079  WAT2079     0.2052
   6235  O          7.9990   10.0830  -13.2000 O.3  2080  WAT2080    -0.4105
   6236  H1         8.4550   10.8940  -12.9740 H    2080  WAT2080     0.2052
   6237  H2         7.6480    9.7660  -12.3680 H    2080  WAT2080     0.2052
   6238  O         10.3020   15.5940   -5.9700 O.3  2081  WAT2081    -0.4105
   6239  H1        10.9460   15.8000   -5.2930 H    2081  WAT2081     0.2052
   6240  H2        10.6650   14.8330   -6.4230 H    2081  WAT2081     0.2052
   6241  O          3.9000    0.4270  -12.7270 O.3  2082  WAT2082    -0.4105
   6242  H1         3.7720    0.4190  -11.7790 H    2082  WAT2082     0.2052
   6243  H2         3.0760    0.7650  -13.0780 H    2082  WAT2082     0.2052
   6244  O         11.5750   13.5970   -7.2530 O.3  2083  WAT2083    -0.4105
   6245  H1        12.2180   12.8970   -7.1400 H    2083  WAT2083     0.2052
   6246  H2        12.1000   14.3770   -7.4330 H    2083  WAT2083     0.2052
   6247  O         15.4210   13.8820  -17.5290 O.3  2084  WAT2084    -0.4105
   6248  H1        15.1950   13.1650  -16.9360 H    2084  WAT2084     0.2052
   6249  H2        15.0310   13.6330  -18.3670 H    2084  WAT2084     0.2052
   6250  O         13.3490   14.3970   -4.0490 O.3  2085  WAT2085    -0.4105
   6251  H1        13.6850   14.9830   -3.3710 H    2085  WAT2085     0.2052
   6252  H2        12.4290   14.2660   -3.8190 H    2085  WAT2085     0.2052
   6253  O          1.2030   17.9090  -16.7540 O.3  2086  WAT2086    -0.4105
   6254  H1         1.5620   18.5080  -17.4090 H    2086  WAT2086     0.2052
   6255  H2         1.0620   18.4550  -15.9810 H    2086  WAT2086     0.2052
   6256  O          0.9000    2.1860   -3.2670 O.3  2087  WAT2087    -0.4105
   6257  H1         0.1850    2.3860   -2.6620 H    2087  WAT2087     0.2052
   6258  H2         1.3190    1.4100   -2.8950 H    2087  WAT2087     0.2052
   6259  O         15.0030   11.7990  -15.8670 O.3  2088  WAT2088    -0.4105
   6260  H1        14.7150   12.2610  -15.0800 H    2088  WAT2088     0.2052
   6261  H2        15.7980   11.3390  -15.5990 H    2088  WAT2088     0.2052
   6262  O          1.1870   16.1740   -2.2800 O.3  2089  WAT2089    -0.4105
   6263  H1         1.2960   15.2340   -2.4210 H    2089  WAT2089     0.2052
   6264  H2         0.5350   16.4400   -2.9290 H    2089  WAT2089     0.2052
   6265  O          9.1780   14.4460   -0.8800 O.3  2090  WAT2090    -0.4105
   6266  H1         8.8580   13.7270   -0.3360 H    2090  WAT2090     0.2052
   6267  H2         8.5040   15.1210   -0.8070 H    2090  WAT2090     0.2052
   6268  O          7.2200   15.2920  -15.9370 O.3  2091  WAT2091    -0.4105
   6269  H1         7.2110   16.0250  -16.5530 H    2091  WAT2091     0.2052
   6270  H2         6.2990   15.0450  -15.8440 H    2091  WAT2091     0.2052
   6271  O          2.8200   10.5130  -15.1920 O.3  2092  WAT2092    -0.4105
   6272  H1         2.2130   11.2530  -15.1830 H    2092  WAT2092     0.2052
   6273  H2         3.2950   10.6030  -16.0190 H    2092  WAT2092     0.2052
   6274  O         12.3930    4.6790   -5.5170 O.3  2093  WAT2093    -0.4105
   6275  H1        12.7620    3.8580   -5.1890 H    2093  WAT2093     0.2052
   6276  H2        11.5330    4.7390   -5.1010 H    2093  WAT2093     0.2052
   6277  O         15.7600    3.6340  -14.7080 O.3  2094  WAT2094    -0.4105
   6278  H1        15.1310    3.7390  -15.4220 H    2094  WAT2094     0.2052
   6279  H2        15.2650    3.8540  -13.9180 H    2094  WAT2094     0.2052
   6280  O         10.2050   15.3550  -17.2740 O.3  2095  WAT2095    -0.4105
   6281  H1        10.3070   15.1510  -18.2040 H    2095  WAT2095     0.2052
   6282  H2         9.3060   15.1010  -17.0700 H    2095  WAT2095     0.2052
   6283  O          7.7280    5.9130  -13.2920 O.3  2096  WAT2096    -0.4105
   6284  H1         7.0200    6.3810  -12.8510 H    2096  WAT2096     0.2052
   6285  H2         8.0130    5.2550  -12.6580 H    2096  WAT2096     0.2052
   6286  O          9.3540    7.3320   -5.2930 O.3  2097  WAT2097    -0.4105
   6287  H1         9.8520    7.8070   -4.6280 H    2097  WAT2097     0.2052
   6288  H2         9.4960    6.4090   -5.0860 H    2097  WAT2097     0.2052
   6289  O         11.7600    2.6380  -11.8530 O.3  2098  WAT2098    -0.4105
   6290  H1        11.6360    2.6560  -12.8020 H    2098  WAT2098     0.2052
   6291  H2        12.7080    2.6860  -11.7330 H    2098  WAT2098     0.2052
   6292  O          8.8470   17.8730  -12.5800 O.3  2099  WAT2099    -0.4105
   6293  H1         9.1010   17.8360  -13.5020 H    2099  WAT2099     0.2052
   6294  H2         7.8990   17.7470  -12.5870 H    2099  WAT2099     0.2052
   6295  O          5.9320    4.2210  -15.9170 O.3  2100  WAT2100    -0.4105
   6296  H1         6.7810    4.6580  -15.9830 H    2100  WAT2100     0.2052
   6297  H2         5.5650    4.5330  -15.0900 H    2100  WAT2100     0.2052
   6298  O         16.5600    3.5490   -4.4500 O.3  2101  WAT2101    -0.4105
   6299  H1        16.0580    4.2900   -4.1110 H    2101  WAT2101     0.2052
   6300  H2        17.3760    3.9380   -4.7660 H    2101  WAT2101     0.2052
   6301  O         14.8530    8.7930  -11.0040 O.3  2102  WAT2102    -0.4105
   6302  H1        13.9120    8.8080  -10.8290 H    2102  WAT2102     0.2052
   6303  H2        15.1670    8.0060  -10.5580 H    2102  WAT2102     0.2052
   6304  O          4.8310   10.4750  -17.4430 O.3  2103  WAT2103    -0.4105
   6305  H1         5.5970   10.3630  -16.8810 H    2103  WAT2103     0.2052
   6306  H2         4.9080    9.7780  -18.0960 H    2103  WAT2103     0.2052
   6307  O          3.5250    7.9070  -16.7600 O.3  2104  WAT2104    -0.4105
   6308  H1         3.6060    6.9600  -16.6480 H    2104  WAT2104     0.2052
   6309  H2         4.4170    8.2380  -16.6540 H    2104  WAT2104     0.2052
   6310  O         16.8550   15.9630   -9.3280 O.3  2105  WAT2105    -0.4105
   6311  H1        16.9800   16.7870   -8.8560 H    2105  WAT2105     0.2052
   6312  H2        17.7220   15.7530   -9.6760 H    2105  WAT2105     0.2052
   6313  O          4.3270   18.0570   -9.6570 O.3  2106  WAT2106    -0.4105
   6314  H1         5.0630   17.5080   -9.3860 H    2106  WAT2106     0.2052
   6315  H2         4.7110   18.9220   -9.7960 H    2106  WAT2106     0.2052
   6316  O          1.2110   14.1240  -13.7830 O.3  2107  WAT2107    -0.4105
   6317  H1         0.2850   14.3660  -13.7920 H    2107  WAT2107     0.2052
   6318  H2         1.6770   14.9510  -13.9040 H    2107  WAT2107     0.2052
   6319  O          3.3330   17.2410   -0.4680 O.3  2108  WAT2108    -0.4105
   6320  H1         4.1340   17.5620   -0.0550 H    2108  WAT2108     0.2052
   6321  H2         2.8180   16.8810    0.2540 H    2108  WAT2108     0.2052
   6322  O          7.4370   17.2300  -17.8340 O.3  2109  WAT2109    -0.4105
   6323  H1         8.2300   17.5190  -18.2860 H    2109  WAT2109     0.2052
   6324  H2         6.9180   16.7990  -18.5130 H    2109  WAT2109     0.2052
   6325  O         12.1690   13.3490   -0.5210 O.3  2110  WAT2110    -0.4105
   6326  H1        11.5630   13.3720   -1.2610 H    2110  WAT2110     0.2052
   6327  H2        11.8650   12.6170    0.0160 H    2110  WAT2110     0.2052
   6328  O         13.5990   17.0770   -1.9100 O.3  2111  WAT2111    -0.4105
   6329  H1        14.5510   16.9930   -1.9600 H    2111  WAT2111     0.2052
   6330  H2        13.4520   17.7410   -1.2360 H    2111  WAT2111     0.2052
   6331  O         16.4900   16.4570  -16.4100 O.3  2112  WAT2112    -0.4105
   6332  H1        16.2040   16.0430  -17.2250 H    2112  WAT2112     0.2052
   6333  H2        16.2920   17.3850  -16.5300 H    2112  WAT2112     0.2052
   6334  O          1.0520    9.7290   -1.5250 O.3  2113  WAT2113    -0.4105
   6335  H1         1.5560    9.1490   -0.9530 H    2113  WAT2113     0.2052
   6336  H2         0.3130   10.0130   -0.9870 H    2113  WAT2113     0.2052
   6337  O          7.9550   12.4500  -17.9700 O.3  2114  WAT2114    -0.4105
   6338  H1         7.8500   11.8350  -17.2440 H    2114  WAT2114     0.2052
   6339  H2         7.7870   11.9270  -18.7540 H    2114  WAT2114     0.2052
   6340  O          8.1060   11.1360   -1.9910 O.3  2115  WAT2115    -0.4105
   6341  H1         7.3410   11.7040   -2.0760 H    2115  WAT2115     0.2052
   6342  H2         8.2880   10.8430   -2.8840 H    2115  WAT2115     0.2052
   6343  O         11.1950   11.5120  -17.3660 O.3  2116  WAT2116    -0.4105
   6344  H1        10.6460   11.9590  -16.7210 H    2116  WAT2116     0.2052
   6345  H2        11.8170   11.0070  -16.8420 H    2116  WAT2116     0.2052
   6346  O         15.2490   12.8660   -1.4340 O.3  2117  WAT2117    -0.4105
   6347  H1        15.9900   13.2040   -1.9370 H    2117  WAT2117     0.2052
   6348  H2        14.4860   13.0350   -1.9870 H    2117  WAT2117     0.2052
   6349  O          3.0850    7.8720   -0.6300 O.3  2118  WAT2118    -0.4105
   6350  H1         3.1250    7.5730    0.2790 H    2118  WAT2118     0.2052
   6351  H2         3.9390    8.2720   -0.7890 H    2118  WAT2118     0.2052
   6352  O          6.8630   10.4710  -15.4690 O.3  2119  WAT2119    -0.4105
   6353  H1         7.2840   10.3050  -14.6260 H    2119  WAT2119     0.2052
   6354  H2         6.9880    9.6610  -15.9640 H    2119  WAT2119     0.2052
   6355  O          5.0250    6.4510   -2.6620 O.3  2120  WAT2120    -0.4105
   6356  H1         4.4950    5.9600   -3.2900 H    2120  WAT2120     0.2052
   6357  H2         5.6940    6.8790   -3.1960 H    2120  WAT2120     0.2052
   6358  O          9.3750    9.4950  -18.2210 O.3  2121  WAT2121    -0.4105
   6359  H1         9.8960    8.7800  -18.5870 H    2121  WAT2121     0.2052
   6360  H2        10.0220   10.1330  -17.9210 H    2121  WAT2121     0.2052
   6361  O         13.9230   10.9180   -2.8980 O.3  2122  WAT2122    -0.4105
   6362  H1        14.3370   11.0720   -2.0490 H    2122  WAT2122     0.2052
   6363  H2        12.9880   11.0430   -2.7350 H    2122  WAT2122     0.2052
   6364  O         14.3950    8.2570   -0.8940 O.3  2123  WAT2123    -0.4105
   6365  H1        14.9770    7.5030   -0.9820 H    2123  WAT2123     0.2052
   6366  H2        14.5720    8.7880   -1.6710 H    2123  WAT2123     0.2052
   6367  O          5.5130    3.4170   -2.5820 O.3  2124  WAT2124    -0.4105
   6368  H1         5.4180    2.7990   -3.3070 H    2124  WAT2124     0.2052
   6369  H2         4.9320    4.1440   -2.8090 H    2124  WAT2124     0.2052
   6370  O          8.2790    1.9740   -5.5500 O.3  2125  WAT2125    -0.4105
   6371  H1         7.8300    1.9970   -6.3950 H    2125  WAT2125     0.2052
   6372  H2         7.6450    1.5760   -4.9530 H    2125  WAT2125     0.2052
   6373  O          8.6850   10.8700   -4.9280 O.3  2126  WAT2126    -0.4105
   6374  H1         9.1030   11.7130   -5.1010 H    2126  WAT2126     0.2052
   6375  H2         7.7660   11.0070   -5.1580 H    2126  WAT2126     0.2052
   6376  O         11.0210    8.6010   -3.5450 O.3  2127  WAT2127    -0.4105
   6377  H1        11.1410    8.0050   -2.8050 H    2127  WAT2127     0.2052
   6378  H2        11.8800    8.6380   -3.9640 H    2127  WAT2127     0.2052
   6379  O         13.3600    9.1550   -4.9680 O.3  2128  WAT2128    -0.4105
   6380  H1        12.8330    9.6790   -5.5720 H    2128  WAT2128     0.2052
   6381  H2        13.7030    9.7880   -4.3370 H    2128  WAT2128     0.2052
   6382  O          5.7590    6.5440  -18.5230 O.3  2129  WAT2129    -0.4105
   6383  H1         5.5570    5.6810  -18.1620 H    2129  WAT2129     0.2052
   6384  H2         5.5880    6.4580  -19.4610 H    2129  WAT2129     0.2052
   6385  O          6.5350   17.1750   -3.8130 O.3  2130  WAT2130    -0.4105
   6386  H1         5.9980   17.9000   -4.1320 H    2130  WAT2130     0.2052
   6387  H2         6.7890   16.6980   -4.6030 H    2130  WAT2130     0.2052
   6388  O          7.7880    5.1430   -2.2870 O.3  2131  WAT2131    -0.4105
   6389  H1         8.3780    4.8350   -1.5990 H    2131  WAT2131     0.2052
   6390  H2         6.9700    4.6710   -2.1310 H    2131  WAT2131     0.2052
   6391  O         12.6070    4.7600   -2.0540 O.3  2132  WAT2132    -0.4105
   6392  H1        11.9190    4.0980   -2.1190 H    2132  WAT2132     0.2052
   6393  H2        13.3280    4.3140   -1.6090 H    2132  WAT2132     0.2052
   6394  O         13.2370    1.3550  -15.9950 O.3  2133  WAT2133    -0.4105
   6395  H1        13.5180    0.5120  -15.6390 H    2133  WAT2133     0.2052
   6396  H2        12.4640    1.5880  -15.4810 H    2133  WAT2133     0.2052
   6397  O          4.5570    3.6440  -18.5360 O.3  2134  WAT2134    -0.4105
   6398  H1         4.8590    3.6510  -19.4440 H    2134  WAT2134     0.2052
   6399  H2         5.2960    3.2940  -18.0390 H    2134  WAT2134     0.2052
   6400  O          9.3920   18.4100   -3.5540 O.3  2135  WAT2135    -0.4105
   6401  H1         9.3180   19.3140   -3.2470 H    2135  WAT2135     0.2052
   6402  H2         8.4900   18.0910   -3.5820 H    2135  WAT2135     0.2052
   6403  O          7.7750    2.5880  -17.5500 O.3  2136  WAT2136    -0.4105
   6404  H1         7.4270    1.9100  -18.1300 H    2136  WAT2136     0.2052
   6405  H2         7.9770    2.1270  -16.7360 H    2136  WAT2136     0.2052
   6406  O          9.9400   17.5760  -15.9310 O.3  2137  WAT2137    -0.4105
   6407  H1        10.8350   17.9140  -15.9090 H    2137  WAT2137     0.2052
   6408  H2         9.9720   16.8540  -16.5590 H    2137  WAT2137     0.2052
   6409  O          3.5800   12.9490  -17.7030 O.3  2138  WAT2138    -0.4105
   6410  H1         4.0170   13.4920  -17.0470 H    2138  WAT2138     0.2052
   6411  H2         4.0650   12.1230  -17.6930 H    2138  WAT2138     0.2052
   6412  O          0.7940   15.7380  -10.2510 O.3  2139  WAT2139    -0.4105
   6413  H1         1.1250   14.8700  -10.4830 H    2139  WAT2139     0.2052
   6414  H2         1.2230   15.9430   -9.4200 H    2139  WAT2139     0.2052
   6415  O          5.3910   14.0680  -12.5900 O.3  2140  WAT2140    -0.4105
   6416  H1         5.0900   13.9450  -11.6900 H    2140  WAT2140     0.2052
   6417  H2         5.2840   13.2090  -12.9990 H    2140  WAT2140     0.2052
   6418  O          1.2830   16.6050   -7.5120 O.3  2141  WAT2141    -0.4105
   6419  H1         0.8460   16.7850   -6.6800 H    2141  WAT2141     0.2052
   6420  H2         1.8510   17.3620   -7.6540 H    2141  WAT2141     0.2052
   6421  O         16.9200   16.1060   -3.2250 O.3  2142  WAT2142    -0.4105
   6422  H1        16.3200   16.1660   -3.9680 H    2142  WAT2142     0.2052
   6423  H2        17.0490   15.1670   -3.0950 H    2142  WAT2142     0.2052
   6424  O         18.1600   13.8480  -17.8880 O.3  2143  WAT2143    -0.4105
   6425  H1        17.3290   13.9160  -17.4170 H    2143  WAT2143     0.2052
   6426  H2        18.3370   14.7390  -18.1910 H    2143  WAT2143     0.2052
   6427  O         17.6150   10.5930  -15.3840 O.3  2144  WAT2144    -0.4105
   6428  H1        18.3770   11.1630  -15.2780 H    2144  WAT2144     0.2052
   6429  H2        17.6310   10.0260  -14.6130 H    2144  WAT2144     0.2052
   6430  O          1.1160    9.1170  -11.1540 O.3  2145  WAT2145    -0.4105
   6431  H1         0.4610    8.8480  -11.7980 H    2145  WAT2145     0.2052
   6432  H2         1.9540    9.0070  -11.6030 H    2145  WAT2145     0.2052
   6433  O         18.6210   11.4480  -10.5400 O.3  2146  WAT2146    -0.4105
   6434  H1        18.9920   10.6650  -10.9470 H    2146  WAT2146     0.2052
   6435  H2        19.2620   12.1370  -10.7180 H    2146  WAT2146     0.2052
   6436  O         15.6050   12.8320   -5.1270 O.3  2147  WAT2147    -0.4105
   6437  H1        14.7910   13.2610   -4.8650 H    2147  WAT2147     0.2052
   6438  H2        16.0120   13.4430   -5.7400 H    2147  WAT2147     0.2052
   6439  O         17.6670   10.8860  -18.2270 O.3  2148  WAT2148    -0.4105
   6440  H1        17.9420   11.7940  -18.3550 H    2148  WAT2148     0.2052
   6441  H2        17.4780   10.8230  -17.2910 H    2148  WAT2148     0.2052
   6442  O         14.0650    3.9110  -16.9320 O.3  2149  WAT2149    -0.4105
   6443  H1        14.4830    3.7240  -17.7720 H    2149  WAT2149     0.2052
   6444  H2        13.7580    3.0590  -16.6210 H    2149  WAT2149     0.2052
   6445  O         17.5640    8.8230  -13.2340 O.3  2150  WAT2150    -0.4105
   6446  H1        17.1880    8.0560  -13.6660 H    2150  WAT2150     0.2052
   6447  H2        16.8340    9.2050  -12.7470 H    2150  WAT2150     0.2052
   6448  O          2.1530    9.5020   -6.6130 O.3  2151  WAT2151    -0.4105
   6449  H1         2.5210    9.4150   -5.7340 H    2151  WAT2151     0.2052
   6450  H2         1.5850    8.7390   -6.7130 H    2151  WAT2151     0.2052
   6451  O         16.9540    7.9700   -3.6000 O.3  2152  WAT2152    -0.4105
   6452  H1        16.7220    7.7420   -4.5000 H    2152  WAT2152     0.2052
   6453  H2        17.2140    8.8900   -3.6460 H    2152  WAT2152     0.2052
   6454  O          1.7050    6.4130   -2.7070 O.3  2153  WAT2153    -0.4105
   6455  H1         0.8110    6.3800   -2.3680 H    2153  WAT2153     0.2052
   6456  H2         2.2450    6.6120   -1.9420 H    2153  WAT2153     0.2052
   6457  O         15.3930    3.1960   -0.8220 O.3  2154  WAT2154    -0.4105
   6458  H1        16.2700    3.2040   -0.4390 H    2154  WAT2154     0.2052
   6459  H2        15.4050    2.4590   -1.4330 H    2154  WAT2154     0.2052
   6460  O          0.3300    6.3270  -15.2110 O.3  2155  WAT2155    -0.4105
   6461  H1        -0.5740    6.5900  -15.3860 H    2155  WAT2155     0.2052
   6462  H2         0.8140    6.5980  -15.9910 H    2155  WAT2155     0.2052
   6463  O         16.8390    7.0490   -9.9330 O.3  2156  WAT2156    -0.4105
   6464  H1        17.3630    6.5550  -10.5640 H    2156  WAT2156     0.2052
   6465  H2        17.4250    7.1840   -9.1890 H    2156  WAT2156     0.2052
   6466  O         17.0180    7.1330   -6.4110 O.3  2157  WAT2157    -0.4105
   6467  H1        16.0680    7.0990   -6.2970 H    2157  WAT2157     0.2052
   6468  H2        17.1990    8.0430   -6.6460 H    2157  WAT2157     0.2052
   6469  O          2.8720    5.3830  -17.3020 O.3  2158  WAT2158    -0.4105
   6470  H1         3.5820    4.9610  -17.7870 H    2158  WAT2158     0.2052
   6471  H2         2.1560    5.4510  -17.9330 H    2158  WAT2158     0.2052
   6472  O          2.5200    1.4370  -18.2610 O.3  2159  WAT2159    -0.4105
   6473  H1         3.2430    1.9780  -17.9430 H    2159  WAT2159     0.2052
   6474  H2         2.7920    1.1630  -19.1370 H    2159  WAT2159     0.2052
   6475  O         16.3290    6.3060  -13.9940 O.3  2160  WAT2160    -0.4105
   6476  H1        16.8250    6.0730  -13.2090 H    2160  WAT2160     0.2052
   6477  H2        16.1310    5.4670  -14.4100 H    2160  WAT2160     0.2052
   6478  O          2.2090    0.6880   -8.3590 O.3  2161  WAT2161    -0.4105
   6479  H1         2.8570    0.1370   -8.8000 H    2161  WAT2161     0.2052
   6480  H2         2.6290    0.9420   -7.5370 H    2161  WAT2161     0.2052
   6481  O         17.7580    4.9420  -11.4600 O.3  2162  WAT2162    -0.4105
   6482  H1        17.6480    4.7880  -10.5220 H    2162  WAT2162     0.2052
   6483  H2        18.5180    4.4140  -11.7030 H    2162  WAT2162     0.2052
   6484  O         16.1040    0.8820   -5.0020 O.3  2163  WAT2163    -0.4105
   6485  H1        16.7410    1.4950   -4.6360 H    2163  WAT2163     0.2052
   6486  H2        16.2520    0.9180   -5.9470 H    2163  WAT2163     0.2052
   6487  O         18.6470    2.7730  -18.2200 O.3  2164  WAT2164    -0.4105
   6488  H1        19.5720    2.6410  -18.4280 H    2164  WAT2164     0.2052
   6489  H2        18.6240    2.8520  -17.2660 H    2164  WAT2164     0.2052
   6490  O         18.7210    3.5440  -15.5940 O.3  2165  WAT2165    -0.4105
   6491  H1        17.9260    3.4790  -15.0650 H    2165  WAT2165     0.2052
   6492  H2        18.9250    4.4790  -15.6060 H    2165  WAT2165     0.2052
   6493  O         15.6620   17.5830  -11.6000 O.3  2166  WAT2166    -0.4105
   6494  H1        16.2580   17.2620  -12.2770 H    2166  WAT2166     0.2052
   6495  H2        15.9200   17.1110  -10.8090 H    2166  WAT2166     0.2052
   6496  O          1.9620    0.8430   -5.6170 O.3  2167  WAT2167    -0.4105
   6497  H1         1.6140    1.3000   -4.8510 H    2167  WAT2167     0.2052
   6498  H2         1.6310   -0.0510   -5.5340 H    2167  WAT2167     0.2052
   6499  O          3.5690   14.0150   -1.4510 O.3  2168  WAT2168    -0.4105
   6500  H1         3.5260   13.6440   -0.5700 H    2168  WAT2168     0.2052
   6501  H2         3.7000   14.9530   -1.3110 H    2168  WAT2168     0.2052
   6502  O          7.2690   15.5710   -5.8500 O.3  2169  WAT2169    -0.4105
   6503  H1         7.0280   15.8390   -6.7370 H    2169  WAT2169     0.2052
   6504  H2         8.2100   15.7420   -5.7950 H    2169  WAT2169     0.2052
   6505  O          9.4750    2.0340   -2.0950 O.3  2170  WAT2170    -0.4105
   6506  H1         9.4140    2.6270   -1.3450 H    2170  WAT2170     0.2052
   6507  H2        10.4150    1.9270   -2.2400 H    2170  WAT2170     0.2052
   6508  O         12.1120    1.6910   -2.4550 O.3  2171  WAT2171    -0.4105
   6509  H1        12.7260    2.0090   -3.1170 H    2171  WAT2171     0.2052
   6510  H2        12.6570    1.2060   -1.8360 H    2171  WAT2171     0.2052
   6511  O         18.5300   17.5910   -5.0490 O.3  2172  WAT2172    -0.4105
   6512  H1        18.0350   17.9870   -5.7660 H    2172  WAT2172     0.2052
   6513  H2        17.9210   16.9660   -4.6550 H    2172  WAT2172     0.2052
   6514  O          2.6340    0.3710   -2.3410 O.3  2173  WAT2173    -0.4105
   6515  H1         3.1830    0.1900   -3.1050 H    2173  WAT2173     0.2052
   6516  H2         2.7000   -0.4200   -1.8060 H    2173  WAT2173     0.2052
   6517  O          3.4070   16.9610   -4.3310 O.3  2174  WAT2174    -0.4105
   6518  H1         2.8130   16.8300   -3.5920 H    2174  WAT2174     0.2052
   6519  H2         3.4000   16.1250   -4.7970 H    2174  WAT2174     0.2052
   6520  O         12.8530    0.2550   -6.1280 O.3  2175  WAT2175    -0.4105
   6521  H1        11.9790    0.5880   -6.3310 H    2175  WAT2175     0.2052
   6522  H2        12.7440   -0.2180   -5.3030 H    2175  WAT2175     0.2052
   6523  O         13.7600    2.4620   -4.7440 O.3  2176  WAT2176    -0.4105
   6524  H1        13.4310    1.6470   -5.1240 H    2176  WAT2176     0.2052
   6525  H2        14.7080    2.4190   -4.8680 H    2176  WAT2176     0.2052
   6526  O         16.2140   18.2330   -7.7700 O.3  2177  WAT2177    -0.4105
   6527  H1        15.7540   18.9850   -8.1450 H    2177  WAT2177     0.2052
   6528  H2        15.5850   17.5140   -7.8290 H    2177  WAT2177     0.2052
   6529  O          3.0390   14.3270   -5.3810 O.3  2178  WAT2178    -0.4105
   6530  H1         2.3120   13.7080   -5.4480 H    2178  WAT2178     0.2052
   6531  H2         3.1000   14.7210   -6.2510 H    2178  WAT2178     0.2052
   6532  O          6.6430   16.5420   -8.5960 O.3  2179  WAT2179    -0.4105
   6533  H1         7.1600   15.9300   -9.1210 H    2179  WAT2179     0.2052
   6534  H2         7.2930   17.0450   -8.1050 H    2179  WAT2179     0.2052
   6535  O          9.3830   17.4330   -7.7690 O.3  2180  WAT2180    -0.4105
   6536  H1         9.6710   17.1780   -8.6450 H    2180  WAT2180     0.2052
   6537  H2         9.8950   16.8800   -7.1780 H    2180  WAT2180     0.2052
   6538  O         10.6000    1.1720   -7.1890 O.3  2181  WAT2181    -0.4105
   6539  H1         9.8180    1.6460   -6.9090 H    2181  WAT2181     0.2052
   6540  H2        10.3070    0.2670   -7.2980 H    2181  WAT2181     0.2052
   6541  O         15.1530    1.8740   -9.1440 O.3  2182  WAT2182    -0.4105
   6542  H1        15.5930    1.8180   -9.9920 H    2182  WAT2182     0.2052
   6543  H2        14.8830    2.7900   -9.0730 H    2182  WAT2182     0.2052
   6544  O         17.0160    1.5050  -11.1330 O.3  2183  WAT2183    -0.4105
   6545  H1        16.9550    0.5620  -11.2800 H    2183  WAT2183     0.2052
   6546  H2        17.7960    1.6130  -10.5880 H    2183  WAT2183     0.2052
   6547  O          1.3220   17.6450  -12.1710 O.3  2184  WAT2184    -0.4105
   6548  H1         1.1540   17.0120  -11.4730 H    2184  WAT2184     0.2052
   6549  H2         0.4550   17.8510  -12.5220 H    2184  WAT2184     0.2052
   6550  O          1.9440    1.4760  -14.6680 O.3  2185  WAT2185    -0.4105
   6551  H1         2.7020    1.5890  -15.2410 H    2185  WAT2185     0.2052
   6552  H2         1.4820    2.3130  -14.7130 H    2185  WAT2185     0.2052
   6553  O          8.4860    3.5900  -11.6780 O.3  2186  WAT2186    -0.4105
   6554  H1         7.6730    3.2160  -12.0180 H    2186  WAT2186     0.2052
   6555  H2         8.9900    2.8350  -11.3750 H    2186  WAT2186     0.2052
   6556  O         12.9880    0.2550  -10.4390 O.3  2187  WAT2187    -0.4105
   6557  H1        13.5910    0.8270   -9.9640 H    2187  WAT2187     0.2052
   6558  H2        12.2480    0.8180  -10.6620 H    2187  WAT2187     0.2052
   6559  O         16.1320    0.6570  -15.1650 O.3  2188  WAT2188    -0.4105
   6560  H1        16.3270    1.5550  -14.8980 H    2188  WAT2188     0.2052
   6561  H2        15.3450    0.4250  -14.6720 H    2188  WAT2188     0.2052
   6562  O          2.9280   16.3380  -14.7260 O.3  2189  WAT2189    -0.4105
   6563  H1         2.4030   16.7190  -15.4300 H    2189  WAT2189     0.2052
   6564  H2         2.8520   16.9630  -14.0050 H    2189  WAT2189     0.2052
   6565  O          4.3170    2.0030  -16.1280 O.3  2190  WAT2190    -0.4105
   6566  H1         4.8460    1.2160  -16.2570 H    2190  WAT2190     0.2052
   6567  H2         4.9500    2.6820  -15.8940 H    2190  WAT2190     0.2052
   6568  O          6.5110    1.7400  -13.0730 O.3  2191  WAT2191    -0.4105
   6569  H1         5.8810    1.0390  -12.9060 H    2191  WAT2191     0.2052
   6570  H2         5.9710    2.5010  -13.2900 H    2191  WAT2191     0.2052
   6571  O          9.4500   18.3540   -0.4020 O.3  2192  WAT2192    -0.4105
   6572  H1        10.3770   18.1190   -0.3580 H    2192  WAT2192     0.2052
   6573  H2         9.4350   19.1810   -0.8830 H    2192  WAT2192     0.2052
   6574  O         17.6840   17.8970  -13.4050 O.3  2193  WAT2193    -0.4105
   6575  H1        17.8600   17.2110  -14.0480 H    2193  WAT2193     0.2052
   6576  H2        16.9870   18.4210  -13.7970 H    2193  WAT2193     0.2052
   6577  O          6.6360    1.0190   -0.6380 O.3  2194  WAT2194    -0.4105
   6578  H1         6.3550    1.5220   -1.4020 H    2194  WAT2194     0.2052
   6579  H2         7.0180    0.2210   -1.0040 H    2194  WAT2194     0.2052
   6580  O          5.5270   18.2860  -15.8510 O.3  2195  WAT2195    -0.4105
   6581  H1         6.2590   18.0020  -16.3990 H    2195  WAT2195     0.2052
   6582  H2         5.7870   18.0480  -14.9610 H    2195  WAT2195     0.2052
   6583  O          4.6890   14.4030  -15.8460 O.3  2196  WAT2196    -0.4105
   6584  H1         4.0600   14.8710  -15.2980 H    2196  WAT2196     0.2052
   6585  H2         4.8030   13.5580  -15.4120 H    2196  WAT2196     0.2052
   6586  O         13.2380    0.4340   -0.0600 O.3  2197  WAT2197    -0.4105
   6587  H1        13.1240    0.7540    0.8350 H    2197  WAT2197     0.2052
   6588  H2        14.0550    0.8350   -0.3560 H    2197  WAT2197     0.2052
   6589  O         16.0180   17.5810   -0.5780 O.3  2198  WAT2198    -0.4105
   6590  H1        16.8100   17.0860   -0.7850 H    2198  WAT2198     0.2052
   6591  H2        16.3110   18.2600    0.0300 H    2198  WAT2198     0.2052
   6592  O         10.2750   10.2310  -27.8150 O.3  2199  WAT2199    -0.4105
   6593  H1         9.5000    9.7510  -27.5250 H    2199  WAT2199     0.2052
   6594  H2        10.9270    9.5520  -27.9900 H    2199  WAT2199     0.2052
   6595  O          4.2920   10.5430  -26.9380 O.3  2200  WAT2200    -0.4105
   6596  H1         3.4610   10.2880  -26.5380 H    2200  WAT2200     0.2052
   6597  H2         4.9000   10.6140  -26.2020 H    2200  WAT2200     0.2052
   6598  O         14.2960   14.6370  -29.0350 O.3  2201  WAT2201    -0.4105
   6599  H1        13.8340   13.8660  -28.7070 H    2201  WAT2201     0.2052
   6600  H2        15.1090   14.6640  -28.5300 H    2201  WAT2201     0.2052
   6601  O          4.2720   14.5770  -26.7420 O.3  2202  WAT2202    -0.4105
   6602  H1         4.5750   13.6870  -26.9210 H    2202  WAT2202     0.2052
   6603  H2         5.0170   15.1340  -26.9700 H    2202  WAT2202     0.2052
   6604  O          0.6650    8.1040  -27.2700 O.3  2203  WAT2203    -0.4105
   6605  H1         1.2360    7.3360  -27.2690 H    2203  WAT2203     0.2052
   6606  H2         0.6650    8.4030  -28.1790 H    2203  WAT2203     0.2052
   6607  O          9.7160   12.9070  -27.8080 O.3  2204  WAT2204    -0.4105
   6608  H1         9.6470   11.9660  -27.9690 H    2204  WAT2204     0.2052
   6609  H2        10.4780   12.9970  -27.2360 H    2204  WAT2204     0.2052
   6610  O          1.9070    3.5120  -25.4830 O.3  2205  WAT2205    -0.4105
   6611  H1         1.7270    2.6150  -25.2020 H    2205  WAT2205     0.2052
   6612  H2         1.5050    4.0600  -24.8080 H    2205  WAT2205     0.2052
   6613  O         10.7470    5.7140  -27.5810 O.3  2206  WAT2206    -0.4105
   6614  H1        11.1230    4.8410  -27.6940 H    2206  WAT2206     0.2052
   6615  H2        10.6490    6.0500  -28.4720 H    2206  WAT2206     0.2052
   6616  O          2.5260    6.0080  -26.8740 O.3  2207  WAT2207    -0.4105
   6617  H1         3.2070    6.2720  -26.2560 H    2207  WAT2207     0.2052
   6618  H2         2.2110    5.1690  -26.5410 H    2207  WAT2207     0.2052
   6619  O          6.7180    7.0550  -27.7870 O.3  2208  WAT2208    -0.4105
   6620  H1         7.2260    7.5530  -27.1470 H    2208  WAT2208     0.2052
   6621  H2         7.2500    6.2790  -27.9630 H    2208  WAT2208     0.2052
   6622  O         18.8190    5.2260  -24.0840 O.3  2209  WAT2209    -0.4105
   6623  H1        18.1140    5.6140  -24.6030 H    2209  WAT2209     0.2052
   6624  H2        19.0850    5.9210  -23.4820 H    2209  WAT2209     0.2052
   6625  O          5.0020    1.6950  -23.5210 O.3  2210  WAT2210    -0.4105
   6626  H1         5.0040    2.2120  -24.3260 H    2210  WAT2210     0.2052
   6627  H2         4.1720    1.2180  -23.5440 H    2210  WAT2210     0.2052
   6628  O          6.2520   11.3350  -25.3430 O.3  2211  WAT2211    -0.4105
   6629  H1         5.9190   11.9610  -24.7010 H    2211  WAT2211     0.2052
   6630  H2         6.4290   11.8610  -26.1230 H    2211  WAT2211     0.2052
   6631  O         14.7650    5.1490  -27.8760 O.3  2212  WAT2212    -0.4105
   6632  H1        14.0610    5.4380  -27.2960 H    2212  WAT2212     0.2052
   6633  H2        15.1270    5.9590  -28.2360 H    2212  WAT2212     0.2052
   6634  O          4.6830    3.4060  -25.5140 O.3  2213  WAT2213    -0.4105
   6635  H1         5.0250    4.2500  -25.8080 H    2213  WAT2213     0.2052
   6636  H2         3.7450    3.5540  -25.3970 H    2213  WAT2213     0.2052
   6637  O          5.4640   13.3030  -23.5290 O.3  2214  WAT2214    -0.4105
   6638  H1         6.0810   13.9780  -23.8100 H    2214  WAT2214     0.2052
   6639  H2         4.6030   13.7110  -23.6200 H    2214  WAT2214     0.2052
   6640  O         16.3820   14.7670  -25.6130 O.3  2215  WAT2215    -0.4105
   6641  H1        15.6980   15.4360  -25.6210 H    2215  WAT2215     0.2052
   6642  H2        16.9210   14.9650  -26.3790 H    2215  WAT2215     0.2052
   6643  O         17.8340    4.5950  -27.4850 O.3  2216  WAT2216    -0.4105
   6644  H1        16.8870    4.6280  -27.3530 H    2216  WAT2216     0.2052
   6645  H2        18.1590    5.4080  -27.1000 H    2216  WAT2216     0.2052
   6646  O          8.3660    0.8940  -29.1890 O.3  2217  WAT2217    -0.4105
   6647  H1         8.6740    0.3390  -29.9060 H    2217  WAT2217     0.2052
   6648  H2         7.4360    1.0290  -29.3720 H    2217  WAT2217     0.2052
   6649  O         13.9180   16.6110  -26.8990 O.3  2218  WAT2218    -0.4105
   6650  H1        13.9300   16.2070  -27.7660 H    2218  WAT2218     0.2052
   6651  H2        13.3650   17.3860  -27.0020 H    2218  WAT2218     0.2052
   6652  O         13.3160   11.5140  -25.5700 O.3  2219  WAT2219    -0.4105
   6653  H1        13.7330   11.3000  -26.4050 H    2219  WAT2219     0.2052
   6654  H2        14.0400   11.7710  -24.9990 H    2219  WAT2219     0.2052
   6655  O         17.2620    9.9130  -25.4790 O.3  2220  WAT2220    -0.4105
   6656  H1        16.4340    9.9820  -25.9540 H    2220  WAT2220     0.2052
   6657  H2        17.8570   10.4980  -25.9470 H    2220  WAT2220     0.2052
   6658  O         14.2270    6.7000  -24.5330 O.3  2221  WAT2221    -0.4105
   6659  H1        13.8140    7.5250  -24.2790 H    2221  WAT2221     0.2052
   6660  H2        13.4940    6.1140  -24.7260 H    2221  WAT2221     0.2052
   6661  O          6.8280   13.1720  -27.5070 O.3  2222  WAT2222    -0.4105
   6662  H1         6.5310   12.5670  -28.1870 H    2222  WAT2222     0.2052
   6663  H2         7.7780   13.2100  -27.6180 H    2222  WAT2222     0.2052
   6664  O          5.0730    6.2600  -25.8910 O.3  2223  WAT2223    -0.4105
   6665  H1         5.6240    6.3690  -26.6660 H    2223  WAT2223     0.2052
   6666  H2         5.5870    6.6340  -25.1760 H    2223  WAT2223     0.2052
   6667  O         14.9170   16.7460  -23.8450 O.3  2224  WAT2224    -0.4105
   6668  H1        14.4400   17.5530  -24.0380 H    2224  WAT2224     0.2052
   6669  H2        14.2330   16.0930  -23.6920 H    2224  WAT2224     0.2052
   6670  O          5.9200   12.9110  -20.8570 O.3  2225  WAT2225    -0.4105
   6671  H1         5.0230   13.1350  -20.6090 H    2225  WAT2225     0.2052
   6672  H2         5.9450   13.0340  -21.8050 H    2225  WAT2225     0.2052
   6673  O          4.7470    9.7820  -22.2810 O.3  2226  WAT2226    -0.4105
   6674  H1         4.6080   10.6540  -21.9120 H    2226  WAT2226     0.2052
   6675  H2         3.8650    9.4390  -22.4260 H    2226  WAT2226     0.2052
   6676  O          6.5450   15.7240  -20.0720 O.3  2227  WAT2227    -0.4105
   6677  H1         6.5170   16.1280  -20.9400 H    2227  WAT2227     0.2052
   6678  H2         6.3820   14.7950  -20.2350 H    2227  WAT2227     0.2052
   6679  O         18.4970   16.5070  -18.7760 O.3  2228  WAT2228    -0.4105
   6680  H1        18.9720   16.9850  -18.0970 H    2228  WAT2228     0.2052
   6681  H2        19.1170   16.4380  -19.5010 H    2228  WAT2228     0.2052
   6682  O          0.6990   11.5520  -26.3640 O.3  2229  WAT2229    -0.4105
   6683  H1         0.7770   11.6860  -27.3080 H    2229  WAT2229     0.2052
   6684  H2         1.3130   10.8430  -26.1710 H    2229  WAT2229     0.2052
   6685  O         17.9000   13.6980  -21.6160 O.3  2230  WAT2230    -0.4105
   6686  H1        18.0260   13.4590  -22.5340 H    2230  WAT2230     0.2052
   6687  H2        17.9420   12.8660  -21.1440 H    2230  WAT2230     0.2052
   6688  O         11.7620   17.4010  -23.0460 O.3  2231  WAT2231    -0.4105
   6689  H1        12.2760   17.3120  -22.2440 H    2231  WAT2231     0.2052
   6690  H2        10.9180   17.7470  -22.7540 H    2231  WAT2231     0.2052
   6691  O         17.7520    5.7510  -20.6510 O.3  2232  WAT2232    -0.4105
   6692  H1        17.1370    6.2590  -21.1790 H    2232  WAT2232     0.2052
   6693  H2        17.4320    4.8510  -20.7080 H    2232  WAT2232     0.2052
   6694  O          0.7550   12.5930  -23.8240 O.3  2233  WAT2233    -0.4105
   6695  H1         0.9180   12.1240  -24.6420 H    2233  WAT2233     0.2052
   6696  H2         1.2200   12.0850  -23.1590 H    2233  WAT2233     0.2052
   6697  O          5.5270    1.7240  -28.7880 O.3  2234  WAT2234    -0.4105
   6698  H1         5.0830    2.5050  -29.1200 H    2234  WAT2234     0.2052
   6699  H2         6.0850    2.0470  -28.0810 H    2234  WAT2234     0.2052
   6700  O          9.8140    4.5900  -23.1850 O.3  2235  WAT2235    -0.4105
   6701  H1         9.3520    4.7990  -22.3730 H    2235  WAT2235     0.2052
   6702  H2         9.4110    3.7760  -23.4880 H    2235  WAT2235     0.2052
   6703  O         14.8140    5.8110  -22.0550 O.3  2236  WAT2236    -0.4105
   6704  H1        13.9630    5.5120  -21.7340 H    2236  WAT2236     0.2052
   6705  H2        14.6540    6.0560  -22.9670 H    2236  WAT2236     0.2052
   6706  O         11.9090    7.3120  -19.9550 O.3  2237  WAT2237    -0.4105
   6707  H1        12.2340    6.4780  -20.2950 H    2237  WAT2237     0.2052
   6708  H2        12.6970    7.8340  -19.8070 H    2237  WAT2237     0.2052
   6709  O          7.5640    2.2680  -26.9290 O.3  2238  WAT2238    -0.4105
   6710  H1         7.8620    3.1750  -27.0100 H    2238  WAT2238     0.2052
   6711  H2         8.1130    1.7800  -27.5430 H    2238  WAT2238     0.2052
   6712  O          7.7580    7.7460  -20.3940 O.3  2239  WAT2239    -0.4105
   6713  H1         7.6620    6.8050  -20.5440 H    2239  WAT2239     0.2052
   6714  H2         8.6010    7.9670  -20.7890 H    2239  WAT2239     0.2052
   6715  O          2.8890    4.1570  -22.2410 O.3  2240  WAT2240    -0.4105
   6716  H1         2.4950    5.0040  -22.0330 H    2240  WAT2240     0.2052
   6717  H2         2.2010    3.5200  -22.0500 H    2240  WAT2240     0.2052
   6718  O          9.4640    4.2400  -19.1710 O.3  2241  WAT2241    -0.4105
   6719  H1         8.7730    4.0480  -18.5360 H    2241  WAT2241     0.2052
   6720  H2        10.2070    4.5240  -18.6390 H    2241  WAT2241     0.2052
   6721  O          0.1910    2.0800  -28.2080 O.3  2242  WAT2242    -0.4105
   6722  H1        -0.0980    2.6500  -27.4950 H    2242  WAT2242     0.2052
   6723  H2         0.9350    1.6000  -27.8450 H    2242  WAT2242     0.2052
   6724  O         11.7400    8.0800  -26.3360 O.3  2243  WAT2243    -0.4105
   6725  H1        11.0080    8.5890  -25.9870 H    2243  WAT2243     0.2052
   6726  H2        11.3420    7.2630  -26.6370 H    2243  WAT2243     0.2052
   6727  O          8.1780    4.7560  -27.9300 O.3  2244  WAT2244    -0.4105
   6728  H1         8.1810    4.3150  -28.7800 H    2244  WAT2244     0.2052
   6729  H2         9.0730    5.0770  -27.8230 H    2244  WAT2244     0.2052
   6730  O          4.0280    4.6380  -28.9710 O.3  2245  WAT2245    -0.4105
   6731  H1         3.6880    5.1160  -28.2140 H    2245  WAT2245     0.2052
   6732  H2         3.2660    4.1850  -29.3310 H    2245  WAT2245     0.2052
   6733  O         12.2020    3.5340  -26.9230 O.3  2246  WAT2246    -0.4105
   6734  H1        12.2200    3.9840  -26.0790 H    2246  WAT2246     0.2052
   6735  H2        11.9540    2.6340  -26.7100 H    2246  WAT2246     0.2052
   6736  O         15.6300    0.9470  -21.0850 O.3  2247  WAT2247    -0.4105
   6737  H1        15.9540    0.2160  -20.5590 H    2247  WAT2247     0.2052
   6738  H2        15.6650    0.6280  -21.9870 H    2247  WAT2247     0.2052
   6739  O          2.3290   11.9680  -21.6650 O.3  2248  WAT2248    -0.4105
   6740  H1         1.9440   11.3280  -21.0660 H    2248  WAT2248     0.2052
   6741  H2         2.6400   12.6720  -21.0950 H    2248  WAT2248     0.2052
   6742  O          8.4780    8.8160  -26.1840 O.3  2249  WAT2249    -0.4105
   6743  H1         8.8450    8.3420  -25.4380 H    2249  WAT2249     0.2052
   6744  H2         8.2890    9.6900  -25.8430 H    2249  WAT2249     0.2052
   6745  O          6.2680    7.8570  -23.8650 O.3  2250  WAT2250    -0.4105
   6746  H1         5.9640    8.7360  -23.6400 H    2250  WAT2250     0.2052
   6747  H2         7.2230    7.9170  -23.8300 H    2250  WAT2250     0.2052
   6748  O         15.5550   11.0590  -27.4760 O.3  2251  WAT2251    -0.4105
   6749  H1        16.2750   11.5550  -27.8670 H    2251  WAT2251     0.2052
   6750  H2        15.3540   10.3810  -28.1210 H    2251  WAT2251     0.2052
   6751  O         10.9370   11.1300  -21.5890 O.3  2252  WAT2252    -0.4105
   6752  H1        10.8710   10.2100  -21.8430 H    2252  WAT2252     0.2052
   6753  H2        10.3080   11.2280  -20.8750 H    2252  WAT2252     0.2052
   6754  O          4.8400   11.7310  -29.6310 O.3  2253  WAT2253    -0.4105
   6755  H1         5.3580   10.9280  -29.6850 H    2253  WAT2253     0.2052
   6756  H2         4.3890   11.6690  -28.7890 H    2253  WAT2253     0.2052
   6757  O          2.3250    8.6970  -22.7180 O.3  2254  WAT2254    -0.4105
   6758  H1         1.9660    9.3620  -22.1310 H    2254  WAT2254     0.2052
   6759  H2         2.0300    7.8650  -22.3470 H    2254  WAT2254     0.2052
   6760  O          5.5260    9.1550  -19.8340 O.3  2255  WAT2255    -0.4105
   6761  H1         5.2260    9.3010  -20.7320 H    2255  WAT2255     0.2052
   6762  H2         6.2970    8.5960  -19.9270 H    2255  WAT2255     0.2052
   6763  O         10.8690   13.9520  -21.8390 O.3  2256  WAT2256    -0.4105
   6764  H1        10.8830   13.0200  -22.0570 H    2256  WAT2256     0.2052
   6765  H2        10.1610   14.0380  -21.2000 H    2256  WAT2256     0.2052
   6766  O         17.0800   10.5930  -22.4920 O.3  2257  WAT2257    -0.4105
   6767  H1        16.3550   11.1860  -22.6890 H    2257  WAT2257     0.2052
   6768  H2        17.6080   10.5850  -23.2910 H    2257  WAT2257     0.2052
   6769  O         12.6100   12.3190  -28.9940 O.3  2258  WAT2258    -0.4105
   6770  H1        12.9620   11.7220  -29.6530 H    2258  WAT2258     0.2052
   6771  H2        11.7260   11.9930  -28.8230 H    2258  WAT2258     0.2052
   6772  O         10.3020   15.5940  -24.7450 O.3  2259  WAT2259    -0.4105
   6773  H1        10.9460   15.8000  -24.0670 H    2259  WAT2259     0.2052
   6774  H2        10.6650   14.8330  -25.1980 H    2259  WAT2259     0.2052
   6775  O         11.5750   13.5970  -26.0270 O.3  2260  WAT2260    -0.4105
   6776  H1        12.2180   12.8970  -25.9140 H    2260  WAT2260     0.2052
   6777  H2        12.1000   14.3770  -26.2070 H    2260  WAT2260     0.2052
   6778  O         13.3490   14.3970  -22.8230 O.3  2261  WAT2261    -0.4105
   6779  H1        13.6850   14.9830  -22.1460 H    2261  WAT2261     0.2052
   6780  H2        12.4290   14.2660  -22.5940 H    2261  WAT2261     0.2052
   6781  O          0.9000    2.1860  -22.0410 O.3  2262  WAT2262    -0.4105
   6782  H1         0.1850    2.3860  -21.4360 H    2262  WAT2262     0.2052
   6783  H2         1.3190    1.4100  -21.6700 H    2262  WAT2262     0.2052
   6784  O          1.1870   16.1740  -21.0540 O.3  2263  WAT2263    -0.4105
   6785  H1         1.2960   15.2340  -21.1950 H    2263  WAT2263     0.2052
   6786  H2         0.5350   16.4400  -21.7030 H    2263  WAT2263     0.2052
   6787  O          9.1780   14.4460  -19.6550 O.3  2264  WAT2264    -0.4105
   6788  H1         8.8580   13.7270  -19.1100 H    2264  WAT2264     0.2052
   6789  H2         8.5040   15.1210  -19.5810 H    2264  WAT2264     0.2052
   6790  O         12.3930    4.6790  -24.2910 O.3  2265  WAT2265    -0.4105
   6791  H1        12.7620    3.8580  -23.9630 H    2265  WAT2265     0.2052
   6792  H2        11.5330    4.7390  -23.8750 H    2265  WAT2265     0.2052
   6793  O          9.3540    7.3320  -24.0670 O.3  2266  WAT2266    -0.4105
   6794  H1         9.8520    7.8070  -23.4020 H    2266  WAT2266     0.2052
   6795  H2         9.4960    6.4090  -23.8600 H    2266  WAT2266     0.2052
   6796  O         16.5600    3.5490  -23.2240 O.3  2267  WAT2267    -0.4105
   6797  H1        16.0580    4.2900  -22.8850 H    2267  WAT2267     0.2052
   6798  H2        17.3760    3.9380  -23.5410 H    2267  WAT2267     0.2052
   6799  O         14.8530    8.7930  -29.7780 O.3  2268  WAT2268    -0.4105
   6800  H1        13.9120    8.8080  -29.6030 H    2268  WAT2268     0.2052
   6801  H2        15.1670    8.0060  -29.3320 H    2268  WAT2268     0.2052
   6802  O         16.8550   15.9630  -28.1030 O.3  2269  WAT2269    -0.4105
   6803  H1        16.9800   16.7870  -27.6300 H    2269  WAT2269     0.2052
   6804  H2        17.7220   15.7530  -28.4500 H    2269  WAT2269     0.2052
   6805  O          4.3270   18.0570  -28.4310 O.3  2270  WAT2270    -0.4105
   6806  H1         5.0630   17.5080  -28.1600 H    2270  WAT2270     0.2052
   6807  H2         4.7110   18.9220  -28.5700 H    2270  WAT2270     0.2052
   6808  O          3.3330   17.2410  -19.2430 O.3  2271  WAT2271    -0.4105
   6809  H1         4.1340   17.5620  -18.8290 H    2271  WAT2271     0.2052
   6810  H2         2.8180   16.8810  -18.5210 H    2271  WAT2271     0.2052
   6811  O         12.1690   13.3490  -19.2950 O.3  2272  WAT2272    -0.4105
   6812  H1        11.5630   13.3720  -20.0350 H    2272  WAT2272     0.2052
   6813  H2        11.8650   12.6170  -18.7580 H    2272  WAT2272     0.2052
   6814  O         13.5990   17.0770  -20.6840 O.3  2273  WAT2273    -0.4105
   6815  H1        14.5510   16.9930  -20.7340 H    2273  WAT2273     0.2052
   6816  H2        13.4520   17.7410  -20.0110 H    2273  WAT2273     0.2052
   6817  O          1.0520    9.7290  -20.2990 O.3  2274  WAT2274    -0.4105
   6818  H1         1.5560    9.1490  -19.7270 H    2274  WAT2274     0.2052
   6819  H2         0.3130   10.0130  -19.7610 H    2274  WAT2274     0.2052
   6820  O          8.1060   11.1360  -20.7650 O.3  2275  WAT2275    -0.4105
   6821  H1         7.3410   11.7040  -20.8500 H    2275  WAT2275     0.2052
   6822  H2         8.2880   10.8430  -21.6590 H    2275  WAT2275     0.2052
   6823  O         15.2490   12.8660  -20.2080 O.3  2276  WAT2276    -0.4105
   6824  H1        15.9900   13.2040  -20.7110 H    2276  WAT2276     0.2052
   6825  H2        14.4860   13.0350  -20.7610 H    2276  WAT2276     0.2052
   6826  O          3.0850    7.8720  -19.4040 O.3  2277  WAT2277    -0.4105
   6827  H1         3.1250    7.5730  -18.4950 H    2277  WAT2277     0.2052
   6828  H2         3.9390    8.2720  -19.5630 H    2277  WAT2277     0.2052
   6829  O          5.0250    6.4510  -21.4360 O.3  2278  WAT2278    -0.4105
   6830  H1         4.4950    5.9600  -22.0640 H    2278  WAT2278     0.2052
   6831  H2         5.6940    6.8790  -21.9710 H    2278  WAT2278     0.2052
   6832  O         13.9230   10.9180  -21.6720 O.3  2279  WAT2279    -0.4105
   6833  H1        14.3370   11.0720  -20.8230 H    2279  WAT2279     0.2052
   6834  H2        12.9880   11.0430  -21.5100 H    2279  WAT2279     0.2052
   6835  O         14.3950    8.2570  -19.6680 O.3  2280  WAT2280    -0.4105
   6836  H1        14.9770    7.5030  -19.7560 H    2280  WAT2280     0.2052
   6837  H2        14.5720    8.7880  -20.4450 H    2280  WAT2280     0.2052
   6838  O          5.5130    3.4170  -21.3570 O.3  2281  WAT2281    -0.4105
   6839  H1         5.4180    2.7990  -22.0820 H    2281  WAT2281     0.2052
   6840  H2         4.9320    4.1440  -21.5840 H    2281  WAT2281     0.2052
   6841  O          8.2790    1.9740  -24.3240 O.3  2282  WAT2282    -0.4105
   6842  H1         7.8300    1.9970  -25.1690 H    2282  WAT2282     0.2052
   6843  H2         7.6450    1.5760  -23.7270 H    2282  WAT2282     0.2052
   6844  O          8.6850   10.8700  -23.7030 O.3  2283  WAT2283    -0.4105
   6845  H1         9.1030   11.7130  -23.8750 H    2283  WAT2283     0.2052
   6846  H2         7.7660   11.0070  -23.9320 H    2283  WAT2283     0.2052
   6847  O         11.0210    8.6010  -22.3190 O.3  2284  WAT2284    -0.4105
   6848  H1        11.1410    8.0050  -21.5790 H    2284  WAT2284     0.2052
   6849  H2        11.8800    8.6380  -22.7390 H    2284  WAT2284     0.2052
   6850  O         13.3600    9.1550  -23.7430 O.3  2285  WAT2285    -0.4105
   6851  H1        12.8330    9.6790  -24.3460 H    2285  WAT2285     0.2052
   6852  H2        13.7030    9.7880  -23.1120 H    2285  WAT2285     0.2052
   6853  O          6.5350   17.1750  -22.5870 O.3  2286  WAT2286    -0.4105
   6854  H1         5.9980   17.9000  -22.9060 H    2286  WAT2286     0.2052
   6855  H2         6.7890   16.6980  -23.3770 H    2286  WAT2286     0.2052
   6856  O          7.7880    5.1430  -21.0610 O.3  2287  WAT2287    -0.4105
   6857  H1         8.3780    4.8350  -20.3740 H    2287  WAT2287     0.2052
   6858  H2         6.9700    4.6710  -20.9050 H    2287  WAT2287     0.2052
   6859  O         12.6070    4.7600  -20.8280 O.3  2288  WAT2288    -0.4105
   6860  H1        11.9190    4.0980  -20.8930 H    2288  WAT2288     0.2052
   6861  H2        13.3280    4.3140  -20.3830 H    2288  WAT2288     0.2052
   6862  O          9.3920   18.4100  -22.3280 O.3  2289  WAT2289    -0.4105
   6863  H1         9.3180   19.3140  -22.0210 H    2289  WAT2289     0.2052
   6864  H2         8.4900   18.0910  -22.3560 H    2289  WAT2289     0.2052
   6865  O          0.7940   15.7380  -29.0250 O.3  2290  WAT2290    -0.4105
   6866  H1         1.1250   14.8700  -29.2570 H    2290  WAT2290     0.2052
   6867  H2         1.2230   15.9430  -28.1940 H    2290  WAT2290     0.2052
   6868  O          1.2830   16.6050  -26.2870 O.3  2291  WAT2291    -0.4105
   6869  H1         0.8460   16.7850  -25.4540 H    2291  WAT2291     0.2052
   6870  H2         1.8510   17.3620  -26.4290 H    2291  WAT2291     0.2052
   6871  O         16.9200   16.1060  -21.9990 O.3  2292  WAT2292    -0.4105
   6872  H1        16.3200   16.1660  -22.7430 H    2292  WAT2292     0.2052
   6873  H2        17.0490   15.1670  -21.8690 H    2292  WAT2292     0.2052
   6874  O         18.6210   11.4480  -29.3140 O.3  2293  WAT2293    -0.4105
   6875  H1        18.9920   10.6650  -29.7210 H    2293  WAT2293     0.2052
   6876  H2        19.2620   12.1370  -29.4930 H    2293  WAT2293     0.2052
   6877  O         15.6050   12.8320  -23.9010 O.3  2294  WAT2294    -0.4105
   6878  H1        14.7910   13.2610  -23.6390 H    2294  WAT2294     0.2052
   6879  H2        16.0120   13.4430  -24.5150 H    2294  WAT2294     0.2052
   6880  O          2.1530    9.5020  -25.3880 O.3  2295  WAT2295    -0.4105
   6881  H1         2.5210    9.4150  -24.5080 H    2295  WAT2295     0.2052
   6882  H2         1.5850    8.7390  -25.4870 H    2295  WAT2295     0.2052
   6883  O         16.9540    7.9700  -22.3750 O.3  2296  WAT2296    -0.4105
   6884  H1        16.7220    7.7420  -23.2750 H    2296  WAT2296     0.2052
   6885  H2        17.2140    8.8900  -22.4200 H    2296  WAT2296     0.2052
   6886  O          1.7050    6.4130  -21.4820 O.3  2297  WAT2297    -0.4105
   6887  H1         0.8110    6.3800  -21.1420 H    2297  WAT2297     0.2052
   6888  H2         2.2450    6.6120  -20.7170 H    2297  WAT2297     0.2052
   6889  O         15.3930    3.1960  -19.5970 O.3  2298  WAT2298    -0.4105
   6890  H1        16.2700    3.2040  -19.2130 H    2298  WAT2298     0.2052
   6891  H2        15.4050    2.4590  -20.2070 H    2298  WAT2298     0.2052
   6892  O         16.8390    7.0490  -28.7080 O.3  2299  WAT2299    -0.4105
   6893  H1        17.3630    6.5550  -29.3390 H    2299  WAT2299     0.2052
   6894  H2        17.4250    7.1840  -27.9630 H    2299  WAT2299     0.2052
   6895  O         17.0180    7.1330  -25.1860 O.3  2300  WAT2300    -0.4105
   6896  H1        16.0680    7.0990  -25.0710 H    2300  WAT2300     0.2052
   6897  H2        17.1990    8.0430  -25.4210 H    2300  WAT2300     0.2052
   6898  O          2.2090    0.6880  -27.1330 O.3  2301  WAT2301    -0.4105
   6899  H1         2.8570    0.1370  -27.5740 H    2301  WAT2301     0.2052
   6900  H2         2.6290    0.9420  -26.3120 H    2301  WAT2301     0.2052
   6901  O         16.1040    0.8820  -23.7760 O.3  2302  WAT2302    -0.4105
   6902  H1        16.7410    1.4950  -23.4110 H    2302  WAT2302     0.2052
   6903  H2        16.2520    0.9180  -24.7220 H    2302  WAT2302     0.2052
   6904  O          1.9620    0.8430  -24.3910 O.3  2303  WAT2303    -0.4105
   6905  H1         1.6140    1.3000  -23.6250 H    2303  WAT2303     0.2052
   6906  H2         1.6310   -0.0510  -24.3090 H    2303  WAT2303     0.2052
   6907  O          3.5690   14.0150  -20.2260 O.3  2304  WAT2304    -0.4105
   6908  H1         3.5260   13.6440  -19.3440 H    2304  WAT2304     0.2052
   6909  H2         3.7000   14.9530  -20.0850 H    2304  WAT2304     0.2052
   6910  O          7.2690   15.5710  -24.6250 O.3  2305  WAT2305    -0.4105
   6911  H1         7.0280   15.8390  -25.5120 H    2305  WAT2305     0.2052
   6912  H2         8.2100   15.7420  -24.5690 H    2305  WAT2305     0.2052
   6913  O          9.4750    2.0340  -20.8690 O.3  2306  WAT2306    -0.4105
   6914  H1         9.4140    2.6270  -20.1190 H    2306  WAT2306     0.2052
   6915  H2        10.4150    1.9270  -21.0140 H    2306  WAT2306     0.2052
   6916  O         12.1120    1.6910  -21.2300 O.3  2307  WAT2307    -0.4105
   6917  H1        12.7260    2.0090  -21.8920 H    2307  WAT2307     0.2052
   6918  H2        12.6570    1.2060  -20.6100 H    2307  WAT2307     0.2052
   6919  O         18.5300   17.5910  -23.8240 O.3  2308  WAT2308    -0.4105
   6920  H1        18.0350   17.9870  -24.5410 H    2308  WAT2308     0.2052
   6921  H2        17.9210   16.9660  -23.4300 H    2308  WAT2308     0.2052
   6922  O          2.6340    0.3710  -21.1160 O.3  2309  WAT2309    -0.4105
   6923  H1         3.1830    0.1900  -21.8790 H    2309  WAT2309     0.2052
   6924  H2         2.7000   -0.4200  -20.5800 H    2309  WAT2309     0.2052
   6925  O          3.4070   16.9610  -23.1060 O.3  2310  WAT2310    -0.4105
   6926  H1         2.8130   16.8300  -22.3670 H    2310  WAT2310     0.2052
   6927  H2         3.4000   16.1250  -23.5720 H    2310  WAT2310     0.2052
   6928  O         12.8530    0.2550  -24.9030 O.3  2311  WAT2311    -0.4105
   6929  H1        11.9790    0.5880  -25.1050 H    2311  WAT2311     0.2052
   6930  H2        12.7440   -0.2180  -24.0780 H    2311  WAT2311     0.2052
   6931  O         13.7600    2.4620  -23.5190 O.3  2312  WAT2312    -0.4105
   6932  H1        13.4310    1.6470  -23.8980 H    2312  WAT2312     0.2052
   6933  H2        14.7080    2.4190  -23.6420 H    2312  WAT2312     0.2052
   6934  O         16.2140   18.2330  -26.5450 O.3  2313  WAT2313    -0.4105
   6935  H1        15.7540   18.9850  -26.9190 H    2313  WAT2313     0.2052
   6936  H2        15.5850   17.5140  -26.6030 H    2313  WAT2313     0.2052
   6937  O          3.0390   14.3270  -24.1550 O.3  2314  WAT2314    -0.4105
   6938  H1         2.3120   13.7080  -24.2220 H    2314  WAT2314     0.2052
   6939  H2         3.1000   14.7210  -25.0250 H    2314  WAT2314     0.2052
   6940  O          6.6430   16.5420  -27.3700 O.3  2315  WAT2315    -0.4105
   6941  H1         7.1600   15.9300  -27.8950 H    2315  WAT2315     0.2052
   6942  H2         7.2930   17.0450  -26.8790 H    2315  WAT2315     0.2052
   6943  O          9.3830   17.4330  -26.5430 O.3  2316  WAT2316    -0.4105
   6944  H1         9.6710   17.1780  -27.4200 H    2316  WAT2316     0.2052
   6945  H2         9.8950   16.8800  -25.9530 H    2316  WAT2316     0.2052
   6946  O         10.6000    1.1720  -25.9630 O.3  2317  WAT2317    -0.4105
   6947  H1         9.8180    1.6460  -25.6840 H    2317  WAT2317     0.2052
   6948  H2        10.3070    0.2670  -26.0720 H    2317  WAT2317     0.2052
   6949  O         15.1530    1.8740  -27.9190 O.3  2318  WAT2318    -0.4105
   6950  H1        15.5930    1.8180  -28.7660 H    2318  WAT2318     0.2052
   6951  H2        14.8830    2.7900  -27.8480 H    2318  WAT2318     0.2052
   6952  O         12.9880    0.2550  -29.2140 O.3  2319  WAT2319    -0.4105
   6953  H1        13.5910    0.8270  -28.7390 H    2319  WAT2319     0.2052
   6954  H2        12.2480    0.8180  -29.4360 H    2319  WAT2319     0.2052
   6955  O          9.4500   18.3540  -19.1760 O.3  2320  WAT2320    -0.4105
   6956  H1        10.3770   18.1190  -19.1330 H    2320  WAT2320     0.2052
   6957  H2         9.4350   19.1810  -19.6580 H    2320  WAT2320     0.2052
   6958  O          6.6360    1.0190  -19.4120 O.3  2321  WAT2321    -0.4105
   6959  H1         6.3550    1.5220  -20.1760 H    2321  WAT2321     0.2052
   6960  H2         7.0180    0.2210  -19.7780 H    2321  WAT2321     0.2052
   6961  O         13.2380    0.4340  -18.8340 O.3  2322  WAT2322    -0.4105
   6962  H1        13.1240    0.7540  -17.9390 H    2322  WAT2322     0.2052
   6963  H2        14.0550    0.8350  -19.1300 H    2322  WAT2322     0.2052
   6964  O         16.0180   17.5810  -19.3520 O.3  2323  WAT2323    -0.4105
   6965  H1        16.8100   17.0860  -19.5600 H    2323  WAT2323     0.2052
   6966  H2        16.3110   18.2600  -18.7450 H    2323  WAT2323     0.2052
   6967  O         12.1440  -10.3210   26.6270 O.3  2324  WAT2324    -0.4105
   6968  H1        12.0630  -11.2360   26.3560 H    2324  WAT2324     0.2052
   6969  H2        11.7300   -9.8240   25.9210 H    2324  WAT2324     0.2052
   6970  O         10.2750   -8.5430   28.5080 O.3  2325  WAT2325    -0.4105
   6971  H1         9.5000   -9.0230   28.7980 H    2325  WAT2325     0.2052
   6972  H2        10.9270   -9.2230   28.3330 H    2325  WAT2325     0.2052
   6973  O         14.2960   -4.1370   27.2880 O.3  2326  WAT2326    -0.4105
   6974  H1        13.8340   -4.9080   27.6160 H    2326  WAT2326     0.2052
   6975  H2        15.1090   -4.1110   27.7930 H    2326  WAT2326     0.2052
   6976  O          4.2720   -4.1970   29.5810 O.3  2327  WAT2327    -0.4105
   6977  H1         4.5750   -5.0870   29.4020 H    2327  WAT2327     0.2052
   6978  H2         5.0170   -3.6400   29.3530 H    2327  WAT2327     0.2052
   6979  O          2.7010  -13.2710   23.1700 O.3  2328  WAT2328    -0.4105
   6980  H1         1.8130  -12.9290   23.0680 H    2328  WAT2328     0.2052
   6981  H2         2.9850  -13.4710   22.2780 H    2328  WAT2328     0.2052
   6982  O          0.6650  -10.6700   29.0540 O.3  2329  WAT2329    -0.4105
   6983  H1         1.2360  -11.4380   29.0540 H    2329  WAT2329     0.2052
   6984  H2         0.6650  -10.3720   28.1440 H    2329  WAT2329     0.2052
   6985  O         10.5230   -1.8510   26.9080 O.3  2330  WAT2330    -0.4105
   6986  H1         9.9040   -1.3960   26.3370 H    2330  WAT2330     0.2052
   6987  H2        11.3780   -1.6960   26.5070 H    2330  WAT2330     0.2052
   6988  O          9.7160   -5.8670   28.5150 O.3  2331  WAT2331    -0.4105
   6989  H1         9.6470   -6.8080   28.3540 H    2331  WAT2331     0.2052
   6990  H2        10.4780   -5.7770   29.0870 H    2331  WAT2331     0.2052
   6991  O         10.7470  -13.0600   28.7420 O.3  2332  WAT2332    -0.4105
   6992  H1        11.1230  -13.9330   28.6290 H    2332  WAT2332     0.2052
   6993  H2        10.6490  -12.7250   27.8510 H    2332  WAT2332     0.2052
   6994  O          4.8770  -14.6880   24.2030 O.3  2333  WAT2333    -0.4105
   6995  H1         4.9840  -13.7870   24.5100 H    2333  WAT2333     0.2052
   6996  H2         3.9670  -14.7360   23.9130 H    2333  WAT2333     0.2052
   6997  O         14.5290  -15.5650   25.6740 O.3  2334  WAT2334    -0.4105
   6998  H1        15.3500  -16.0560   25.7170 H    2334  WAT2334     0.2052
   6999  H2        14.5630  -14.9760   26.4280 H    2334  WAT2334     0.2052
   7000  O          2.5260  -12.7660   29.4490 O.3  2335  WAT2335    -0.4105
   7001  H1         3.2070  -12.5020   30.0670 H    2335  WAT2335     0.2052
   7002  H2         2.2110  -13.6060   29.7820 H    2335  WAT2335     0.2052
   7003  O          6.7180  -11.7190   28.5360 O.3  2336  WAT2336    -0.4105
   7004  H1         7.2260  -11.2210   29.1760 H    2336  WAT2336     0.2052
   7005  H2         7.2500  -12.4960   28.3600 H    2336  WAT2336     0.2052
   7006  O         11.3890   -6.9670   24.3010 O.3  2337  WAT2337    -0.4105
   7007  H1        10.7710   -6.5020   23.7380 H    2337  WAT2337     0.2052
   7008  H2        11.9010   -6.2750   24.7180 H    2337  WAT2337     0.2052
   7009  O         14.7650  -13.6250   28.4470 O.3  2338  WAT2338    -0.4105
   7010  H1        14.0610  -13.3370   29.0280 H    2338  WAT2338     0.2052
   7011  H2        15.1270  -12.8150   28.0870 H    2338  WAT2338     0.2052
   7012  O          0.7570   -6.2820   21.6750 O.3  2339  WAT2339    -0.4105
   7013  H1         0.3800   -5.7930   20.9440 H    2339  WAT2339     0.2052
   7014  H2         1.0150   -5.6090   22.3060 H    2339  WAT2339     0.2052
   7015  O         17.8340  -14.1800   28.8380 O.3  2340  WAT2340    -0.4105
   7016  H1        16.8870  -14.1460   28.9700 H    2340  WAT2340     0.2052
   7017  H2        18.1590  -13.3660   29.2230 H    2340  WAT2340     0.2052
   7018  O          8.3660  -17.8800   27.1340 O.3  2341  WAT2341    -0.4105
   7019  H1         8.6740  -18.4350   26.4170 H    2341  WAT2341     0.2052
   7020  H2         7.4360  -17.7460   26.9510 H    2341  WAT2341     0.2052
   7021  O         13.9180   -2.1630   29.4240 O.3  2342  WAT2342    -0.4105
   7022  H1        13.9300   -2.5670   28.5570 H    2342  WAT2342     0.2052
   7023  H2        13.3650   -1.3890   29.3210 H    2342  WAT2342     0.2052
   7024  O         15.2120   -5.4420   24.5140 O.3  2343  WAT2343    -0.4105
   7025  H1        15.1020   -6.3840   24.6380 H    2343  WAT2343     0.2052
   7026  H2        15.2090   -5.0800   25.4000 H    2343  WAT2343     0.2052
   7027  O         10.7540   -9.8150   23.8700 O.3  2344  WAT2344    -0.4105
   7028  H1         9.8270   -9.8810   24.0990 H    2344  WAT2344     0.2052
   7029  H2        10.9070   -8.8770   23.7550 H    2344  WAT2344     0.2052
   7030  O         10.7410  -13.5440   20.8660 O.3  2345  WAT2345    -0.4105
   7031  H1         9.8010  -13.3820   20.9520 H    2345  WAT2345     0.2052
   7032  H2        11.0590  -12.8250   20.3200 H    2345  WAT2345     0.2052
   7033  O         14.7840   -8.2530   24.3730 O.3  2346  WAT2346    -0.4105
   7034  H1        14.1650   -8.5910   23.7260 H    2346  WAT2346     0.2052
   7035  H2        14.7660   -8.8970   25.0810 H    2346  WAT2346     0.2052
   7036  O          6.3600   -9.2890   26.6520 O.3  2347  WAT2347    -0.4105
   7037  H1         5.9560  -10.0010   26.1560 H    2347  WAT2347     0.2052
   7038  H2         6.4460   -9.6330   27.5410 H    2347  WAT2347     0.2052
   7039  O          6.8280   -5.6020   28.8160 O.3  2348  WAT2348    -0.4105
   7040  H1         6.5310   -6.2070   28.1360 H    2348  WAT2348     0.2052
   7041  H2         7.7780   -5.5640   28.7050 H    2348  WAT2348     0.2052
   7042  O         12.9600   -9.0150   21.3810 O.3  2349  WAT2349    -0.4105
   7043  H1        13.4000   -9.8520   21.2340 H    2349  WAT2349     0.2052
   7044  H2        13.6730   -8.3820   21.4670 H    2349  WAT2349     0.2052
   7045  O         11.0700   -4.0750   25.3490 O.3  2350  WAT2350    -0.4105
   7046  H1        11.5100   -3.3320   24.9340 H    2350  WAT2350     0.2052
   7047  H2        11.0090   -3.8320   26.2730 H    2350  WAT2350     0.2052
   7048  O         16.5420  -17.7600   19.6950 O.3  2351  WAT2351    -0.4105
   7049  H1        16.2290  -17.6680   20.5950 H    2351  WAT2351     0.2052
   7050  H2        17.3030  -17.1820   19.6440 H    2351  WAT2351     0.2052
   7051  O          3.0600  -10.3940   24.1520 O.3  2352  WAT2352    -0.4105
   7052  H1         2.9400   -9.6680   23.5410 H    2352  WAT2352     0.2052
   7053  H2         2.7500  -11.1640   23.6750 H    2352  WAT2352     0.2052
   7054  O          1.9440   -5.5230   26.3700 O.3  2353  WAT2353    -0.4105
   7055  H1         1.5360   -5.3810   25.5150 H    2353  WAT2353     0.2052
   7056  H2         2.8350   -5.8070   26.1670 H    2353  WAT2353     0.2052
   7057  O         13.7370   -1.0880   22.7050 O.3  2354  WAT2354    -0.4105
   7058  H1        13.5770   -1.3780   23.6030 H    2354  WAT2354     0.2052
   7059  H2        13.5720   -1.8640   22.1700 H    2354  WAT2354     0.2052
   7060  O          6.2160   -1.3080   24.4820 O.3  2355  WAT2355    -0.4105
   7061  H1         6.0400   -2.2250   24.2690 H    2355  WAT2355     0.2052
   7062  H2         5.3610   -0.9490   24.7220 H    2355  WAT2355     0.2052
   7063  O         13.4400   -3.5790   21.2650 O.3  2356  WAT2356    -0.4105
   7064  H1        12.7460   -3.5820   20.6050 H    2356  WAT2356     0.2052
   7065  H2        14.1820   -4.0030   20.8340 H    2356  WAT2356     0.2052
   7066  O         13.0050   -1.9530   25.3400 O.3  2357  WAT2357    -0.4105
   7067  H1        13.4600   -2.7340   25.6530 H    2357  WAT2357     0.2052
   7068  H2        13.3440   -1.2420   25.8840 H    2357  WAT2357     0.2052
   7069  O          5.5270  -17.0510   27.5350 O.3  2358  WAT2358    -0.4105
   7070  H1         5.0830  -16.2700   27.2030 H    2358  WAT2358     0.2052
   7071  H2         6.0850  -16.7280   28.2420 H    2358  WAT2358     0.2052
   7072  O          8.6430  -17.4300   22.4150 O.3  2359  WAT2359    -0.4105
   7073  H1         8.0180  -17.4340   23.1410 H    2359  WAT2359     0.2052
   7074  H2         8.5560  -18.2970   22.0190 H    2359  WAT2359     0.2052
   7075  O          7.5640  -16.5060   29.3940 O.3  2360  WAT2360    -0.4105
   7076  H1         7.8620  -15.6000   29.3130 H    2360  WAT2360     0.2052
   7077  H2         8.1130  -16.9940   28.7800 H    2360  WAT2360     0.2052
   7078  O          5.3180  -11.9270   25.2630 O.3  2361  WAT2361    -0.4105
   7079  H1         5.0920  -12.1440   26.1680 H    2361  WAT2361     0.2052
   7080  H2         4.5370  -11.4950   24.9170 H    2361  WAT2361     0.2052
   7081  O         12.5480  -11.9210   23.8620 O.3  2362  WAT2362    -0.4105
   7082  H1        11.9490  -11.1970   23.6780 H    2362  WAT2362     0.2052
   7083  H2        13.0960  -11.9830   23.0800 H    2362  WAT2362     0.2052
   7084  O         11.1540  -13.2850   25.8920 O.3  2363  WAT2363    -0.4105
   7085  H1        11.5470  -12.9670   25.0790 H    2363  WAT2363     0.2052
   7086  H2        11.5160  -14.1640   26.0070 H    2363  WAT2363     0.2052
   7087  O          0.1910  -16.6950   28.1150 O.3  2364  WAT2364    -0.4105
   7088  H1        -0.0980  -16.1240   28.8280 H    2364  WAT2364     0.2052
   7089  H2         0.9350  -17.1740   28.4780 H    2364  WAT2364     0.2052
   7090  O          0.3780  -12.7530   19.3260 O.3  2365  WAT2365    -0.4105
   7091  H1         0.2950  -11.8100   19.4670 H    2365  WAT2365     0.2052
   7092  H2         0.0260  -12.8950   18.4470 H    2365  WAT2365     0.2052
   7093  O          8.1780  -14.0190   28.3930 O.3  2366  WAT2366    -0.4105
   7094  H1         8.1810  -14.4600   27.5430 H    2366  WAT2366     0.2052
   7095  H2         9.0730  -13.6970   28.5000 H    2366  WAT2366     0.2052
   7096  O          4.0280  -14.1360   27.3520 O.3  2367  WAT2367    -0.4105
   7097  H1         3.6880  -13.6590   28.1090 H    2367  WAT2367     0.2052
   7098  H2         3.2660  -14.5900   26.9920 H    2367  WAT2367     0.2052
   7099  O          8.2400  -13.0170   21.3830 O.3  2368  WAT2368    -0.4105
   7100  H1         8.3610  -13.0590   22.3320 H    2368  WAT2368     0.2052
   7101  H2         7.8540  -12.1550   21.2280 H    2368  WAT2368     0.2052
   7102  O          7.2520  -10.7070   20.7820 O.3  2369  WAT2369    -0.4105
   7103  H1         6.6830  -11.1560   20.1550 H    2369  WAT2369     0.2052
   7104  H2         7.9610  -10.3480   20.2480 H    2369  WAT2369     0.2052
   7105  O          1.3420  -15.2140   26.2680 O.3  2370  WAT2370    -0.4105
   7106  H1         1.0570  -15.5790   27.1060 H    2370  WAT2370     0.2052
   7107  H2         1.2800  -15.9460   25.6550 H    2370  WAT2370     0.2052
   7108  O          4.7970   -6.7120   23.0540 O.3  2371  WAT2371    -0.4105
   7109  H1         4.0230   -7.2520   22.8940 H    2371  WAT2371     0.2052
   7110  H2         5.5260   -7.2310   22.7160 H    2371  WAT2371     0.2052
   7111  O         15.5550   -7.7150   28.8470 O.3  2372  WAT2372    -0.4105
   7112  H1        16.2750   -7.2190   28.4570 H    2372  WAT2372     0.2052
   7113  H2        15.3540   -8.3930   28.2020 H    2372  WAT2372     0.2052
   7114  O         11.0160  -16.3210   22.9900 O.3  2373  WAT2373    -0.4105
   7115  H1        10.2030  -16.8200   22.9140 H    2373  WAT2373     0.2052
   7116  H2        10.8230  -15.4810   22.5730 H    2373  WAT2373     0.2052
   7117  O         13.7310  -11.9490   21.2860 O.3  2374  WAT2374    -0.4105
   7118  H1        14.6190  -11.6380   21.1110 H    2374  WAT2374     0.2052
   7119  H2        13.7020  -12.8220   20.8940 H    2374  WAT2374     0.2052
   7120  O          4.8400   -7.0440   26.6920 O.3  2375  WAT2375    -0.4105
   7121  H1         5.3580   -7.8470   26.6380 H    2375  WAT2375     0.2052
   7122  H2         4.3890   -7.1060   27.5340 H    2375  WAT2375     0.2052
   7123  O          9.7270   -5.7770   21.9650 O.3  2376  WAT2376    -0.4105
   7124  H1        10.0690   -5.0330   21.4690 H    2376  WAT2376     0.2052
   7125  H2         8.8980   -5.4640   22.3270 H    2376  WAT2376     0.2052
   7126  O         16.0030  -10.6380   20.7540 O.3  2377  WAT2377    -0.4105
   7127  H1        15.9190  -10.2070   19.9040 H    2377  WAT2377     0.2052
   7128  H2        16.7220  -10.1780   21.1870 H    2377  WAT2377     0.2052
   7129  O         17.0310   -3.7840   23.4820 O.3  2378  WAT2378    -0.4105
   7130  H1        16.3890   -4.4380   23.7570 H    2378  WAT2378     0.2052
   7131  H2        16.6440   -3.3780   22.7060 H    2378  WAT2378     0.2052
   7132  O         12.6100   -6.4550   27.3290 O.3  2379  WAT2379    -0.4105
   7133  H1        12.9620   -7.0530   26.6700 H    2379  WAT2379     0.2052
   7134  H2        11.7260   -6.7810   27.5000 H    2379  WAT2379     0.2052
   7135  O          8.6960   -5.6960   24.7360 O.3  2380  WAT2380    -0.4105
   7136  H1         9.3830   -5.1490   25.1170 H    2380  WAT2380     0.2052
   7137  H2         7.9100   -5.1510   24.7710 H    2380  WAT2380     0.2052
   7138  O          0.8360  -10.0780   20.2280 O.3  2381  WAT2381    -0.4105
   7139  H1         1.7050   -9.7960   20.5120 H    2381  WAT2381     0.2052
   7140  H2         0.3450   -9.2650   20.1130 H    2381  WAT2381     0.2052
   7141  O          7.9990   -8.6910   24.3490 O.3  2382  WAT2382    -0.4105
   7142  H1         8.4550   -7.8800   24.5750 H    2382  WAT2382     0.2052
   7143  H2         7.6480   -9.0090   25.1810 H    2382  WAT2382     0.2052
   7144  O          3.9000  -18.3470   24.8210 O.3  2383  WAT2383    -0.4105
   7145  H1         3.7720  -18.3550   25.7700 H    2383  WAT2383     0.2052
   7146  H2         3.0760  -18.0090   24.4700 H    2383  WAT2383     0.2052
   7147  O         15.4210   -4.8920   20.0200 O.3  2384  WAT2384    -0.4105
   7148  H1        15.1950   -5.6090   20.6120 H    2384  WAT2384     0.2052
   7149  H2        15.0310   -5.1410   19.1820 H    2384  WAT2384     0.2052
   7150  O          1.2030   -0.8660   20.7940 O.3  2385  WAT2385    -0.4105
   7151  H1         1.5620   -0.2670   20.1400 H    2385  WAT2385     0.2052
   7152  H2         1.0620   -0.3200   21.5680 H    2385  WAT2385     0.2052
   7153  O         15.0030   -6.9750   21.6810 O.3  2386  WAT2386    -0.4105
   7154  H1        14.7150   -6.5140   22.4690 H    2386  WAT2386     0.2052
   7155  H2        15.7980   -7.4350   21.9500 H    2386  WAT2386     0.2052
   7156  O          7.2200   -3.4820   21.6120 O.3  2387  WAT2387    -0.4105
   7157  H1         7.2110   -2.7490   20.9960 H    2387  WAT2387     0.2052
   7158  H2         6.2990   -3.7290   21.7040 H    2387  WAT2387     0.2052
   7159  O          2.8200   -8.2610   22.3560 O.3  2388  WAT2388    -0.4105
   7160  H1         2.2130   -7.5210   22.3660 H    2388  WAT2388     0.2052
   7161  H2         3.2950   -8.1710   21.5300 H    2388  WAT2388     0.2052
   7162  O         15.7600  -15.1400   22.8410 O.3  2389  WAT2389    -0.4105
   7163  H1        15.1310  -15.0360   22.1270 H    2389  WAT2389     0.2052
   7164  H2        15.2650  -14.9200   23.6300 H    2389  WAT2389     0.2052
   7165  O         10.2050   -3.4200   20.2740 O.3  2390  WAT2390    -0.4105
   7166  H1        10.3070   -3.6230   19.3440 H    2390  WAT2390     0.2052
   7167  H2         9.3060   -3.6740   20.4790 H    2390  WAT2390     0.2052
   7168  O          7.7280  -12.8620   24.2570 O.3  2391  WAT2391    -0.4105
   7169  H1         7.0200  -12.3930   24.6980 H    2391  WAT2391     0.2052
   7170  H2         8.0130  -13.5190   24.8910 H    2391  WAT2391     0.2052
   7171  O         11.7600  -16.1360   25.6960 O.3  2392  WAT2392    -0.4105
   7172  H1        11.6360  -16.1180   24.7470 H    2392  WAT2392     0.2052
   7173  H2        12.7080  -16.0890   25.8160 H    2392  WAT2392     0.2052
   7174  O          8.8470   -0.9010   24.9690 O.3  2393  WAT2393    -0.4105
   7175  H1         9.1010   -0.9390   24.0470 H    2393  WAT2393     0.2052
   7176  H2         7.8990   -1.0280   24.9620 H    2393  WAT2393     0.2052
   7177  O          5.9320  -14.5530   21.6320 O.3  2394  WAT2394    -0.4105
   7178  H1         6.7810  -14.1160   21.5660 H    2394  WAT2394     0.2052
   7179  H2         5.5650  -14.2410   22.4590 H    2394  WAT2394     0.2052
   7180  O         14.8530   -9.9820   26.5450 O.3  2395  WAT2395    -0.4105
   7181  H1        13.9120   -9.9670   26.7200 H    2395  WAT2395     0.2052
   7182  H2        15.1670  -10.7680   26.9910 H    2395  WAT2395     0.2052
   7183  O          4.8310   -8.3000   20.1050 O.3  2396  WAT2396    -0.4105
   7184  H1         5.5970   -8.4120   20.6680 H    2396  WAT2396     0.2052
   7185  H2         4.9080   -8.9960   19.4530 H    2396  WAT2396     0.2052
   7186  O          3.5250  -10.8670   20.7890 O.3  2397  WAT2397    -0.4105
   7187  H1         3.6060  -11.8150   20.9000 H    2397  WAT2397     0.2052
   7188  H2         4.4170  -10.5370   20.8950 H    2397  WAT2397     0.2052
   7189  O         16.8550   -2.8110   28.2200 O.3  2398  WAT2398    -0.4105
   7190  H1        16.9800   -1.9880   28.6930 H    2398  WAT2398     0.2052
   7191  H2        17.7220   -3.0220   27.8730 H    2398  WAT2398     0.2052
   7192  O          4.3270   -0.7180   27.8920 O.3  2399  WAT2399    -0.4105
   7193  H1         5.0630   -1.2660   28.1630 H    2399  WAT2399     0.2052
   7194  H2         4.7110    0.1480   27.7530 H    2399  WAT2399     0.2052
   7195  O          1.2110   -4.6500   23.7660 O.3  2400  WAT2400    -0.4105
   7196  H1         0.2850   -4.4080   23.7570 H    2400  WAT2400     0.2052
   7197  H2         1.6770   -3.8230   23.6450 H    2400  WAT2400     0.2052
   7198  O          7.4370   -1.5450   19.7150 O.3  2401  WAT2401    -0.4105
   7199  H1         8.2300   -1.2560   19.2630 H    2401  WAT2401     0.2052
   7200  H2         6.9180   -1.9760   19.0360 H    2401  WAT2401     0.2052
   7201  O         16.4900   -2.3180   21.1380 O.3  2402  WAT2402    -0.4105
   7202  H1        16.2040   -2.7310   20.3240 H    2402  WAT2402     0.2052
   7203  H2        16.2920   -1.3890   21.0180 H    2402  WAT2402     0.2052
   7204  O          7.9550   -6.3240   19.5790 O.3  2403  WAT2403    -0.4105
   7205  H1         7.8500   -6.9390   20.3050 H    2403  WAT2403     0.2052
   7206  H2         7.7870   -6.8480   18.7950 H    2403  WAT2403     0.2052
   7207  O         11.1950   -7.2620   20.1830 O.3  2404  WAT2404    -0.4105
   7208  H1        10.6460   -6.8150   20.8270 H    2404  WAT2404     0.2052
   7209  H2        11.8170   -7.7670   20.7070 H    2404  WAT2404     0.2052
   7210  O          6.8630   -8.3030   22.0790 O.3  2405  WAT2405    -0.4105
   7211  H1         7.2840   -8.4690   22.9230 H    2405  WAT2405     0.2052
   7212  H2         6.9880   -9.1130   21.5850 H    2405  WAT2405     0.2052
   7213  O          9.3750   -9.2800   19.3270 O.3  2406  WAT2406    -0.4105
   7214  H1         9.8960   -9.9950   18.9610 H    2406  WAT2406     0.2052
   7215  H2        10.0220   -8.6410   19.6270 H    2406  WAT2406     0.2052
   7216  O          5.7590  -12.2300   19.0250 O.3  2407  WAT2407    -0.4105
   7217  H1         5.5570  -13.0930   19.3870 H    2407  WAT2407     0.2052
   7218  H2         5.5880  -12.3170   18.0870 H    2407  WAT2407     0.2052
   7219  O         13.2370  -17.4190   21.5540 O.3  2408  WAT2408    -0.4105
   7220  H1        13.5180  -18.2620   21.9100 H    2408  WAT2408     0.2052
   7221  H2        12.4640  -17.1870   22.0680 H    2408  WAT2408     0.2052
   7222  O          4.5570  -15.1300   19.0130 O.3  2409  WAT2409    -0.4105
   7223  H1         4.8590  -15.1230   18.1050 H    2409  WAT2409     0.2052
   7224  H2         5.2960  -15.4800   19.5100 H    2409  WAT2409     0.2052
   7225  O          7.7750  -16.1860   19.9990 O.3  2410  WAT2410    -0.4105
   7226  H1         7.4270  -16.8640   19.4190 H    2410  WAT2410     0.2052
   7227  H2         7.9770  -16.6470   20.8130 H    2410  WAT2410     0.2052
   7228  O          9.9400   -1.1980   21.6170 O.3  2411  WAT2411    -0.4105
   7229  H1        10.8350   -0.8600   21.6390 H    2411  WAT2411     0.2052
   7230  H2         9.9720   -1.9200   20.9900 H    2411  WAT2411     0.2052
   7231  O          3.5800   -5.8260   19.8460 O.3  2412  WAT2412    -0.4105
   7232  H1         4.0170   -5.2830   20.5020 H    2412  WAT2412     0.2052
   7233  H2         4.0650   -6.6510   19.8560 H    2412  WAT2412     0.2052
   7234  O          0.7940   -3.0370   27.2980 O.3  2413  WAT2413    -0.4105
   7235  H1         1.1250   -3.9050   27.0660 H    2413  WAT2413     0.2052
   7236  H2         1.2230   -2.8310   28.1290 H    2413  WAT2413     0.2052
   7237  O          5.3910   -4.7060   24.9580 O.3  2414  WAT2414    -0.4105
   7238  H1         5.0900   -4.8290   25.8590 H    2414  WAT2414     0.2052
   7239  H2         5.2840   -5.5650   24.5500 H    2414  WAT2414     0.2052
   7240  O         18.1600   -4.9260   19.6610 O.3  2415  WAT2415    -0.4105
   7241  H1        17.3290   -4.8590   20.1320 H    2415  WAT2415     0.2052
   7242  H2        18.3370   -4.0360   19.3580 H    2415  WAT2415     0.2052
   7243  O         17.6150   -8.1810   22.1640 O.3  2416  WAT2416    -0.4105
   7244  H1        18.3770   -7.6120   22.2700 H    2416  WAT2416     0.2052
   7245  H2        17.6310   -8.7490   22.9350 H    2416  WAT2416     0.2052
   7246  O          1.1160   -9.6580   26.3950 O.3  2417  WAT2417    -0.4105
   7247  H1         0.4610   -9.9270   25.7510 H    2417  WAT2417     0.2052
   7248  H2         1.9540   -9.7670   25.9450 H    2417  WAT2417     0.2052
   7249  O         18.6210   -7.3260   27.0090 O.3  2418  WAT2418    -0.4105
   7250  H1        18.9920   -8.1100   26.6020 H    2418  WAT2418     0.2052
   7251  H2        19.2620   -6.6380   26.8300 H    2418  WAT2418     0.2052
   7252  O         17.6670   -7.8880   19.3220 O.3  2419  WAT2419    -0.4105
   7253  H1        17.9420   -6.9800   19.1940 H    2419  WAT2419     0.2052
   7254  H2        17.4780   -7.9520   20.2580 H    2419  WAT2419     0.2052
   7255  O         14.0650  -14.8640   20.6170 O.3  2420  WAT2420    -0.4105
   7256  H1        14.4830  -15.0500   19.7770 H    2420  WAT2420     0.2052
   7257  H2        13.7580  -15.7160   20.9270 H    2420  WAT2420     0.2052
   7258  O         17.5640   -9.9510   24.3150 O.3  2421  WAT2421    -0.4105
   7259  H1        17.1880  -10.7180   23.8830 H    2421  WAT2421     0.2052
   7260  H2        16.8340   -9.5690   24.8020 H    2421  WAT2421     0.2052
   7261  O          0.3300  -12.4480   22.3380 O.3  2422  WAT2422    -0.4105
   7262  H1        -0.5740  -12.1850   22.1630 H    2422  WAT2422     0.2052
   7263  H2         0.8140  -12.1770   21.5580 H    2422  WAT2422     0.2052
   7264  O         16.8390  -11.7250   27.6150 O.3  2423  WAT2423    -0.4105
   7265  H1        17.3630  -12.2190   26.9840 H    2423  WAT2423     0.2052
   7266  H2        17.4250  -11.5900   28.3600 H    2423  WAT2423     0.2052
   7267  O          2.8720  -13.3910   20.2470 O.3  2424  WAT2424    -0.4105
   7268  H1         3.5820  -13.8130   19.7620 H    2424  WAT2424     0.2052
   7269  H2         2.1560  -13.3240   19.6150 H    2424  WAT2424     0.2052
   7270  O          2.5200  -17.3370   19.2870 O.3  2425  WAT2425    -0.4105
   7271  H1         3.2430  -16.7960   19.6060 H    2425  WAT2425     0.2052
   7272  H2         2.7920  -17.6110   18.4120 H    2425  WAT2425     0.2052
   7273  O         16.3290  -12.4680   23.5550 O.3  2426  WAT2426    -0.4105
   7274  H1        16.8250  -12.7010   24.3390 H    2426  WAT2426     0.2052
   7275  H2        16.1310  -13.3070   23.1380 H    2426  WAT2426     0.2052
   7276  O          2.2090  -18.0870   29.1900 O.3  2427  WAT2427    -0.4105
   7277  H1         2.8570  -18.6370   28.7490 H    2427  WAT2427     0.2052
   7278  H2         2.6290  -17.8320   30.0110 H    2427  WAT2427     0.2052
   7279  O         17.7580  -13.8320   26.0880 O.3  2428  WAT2428    -0.4105
   7280  H1        17.6480  -13.9860   27.0270 H    2428  WAT2428     0.2052
   7281  H2        18.5180  -14.3600   25.8460 H    2428  WAT2428     0.2052
   7282  O         18.6470  -16.0010   19.3290 O.3  2429  WAT2429    -0.4105
   7283  H1        19.5720  -16.1330   19.1210 H    2429  WAT2429     0.2052
   7284  H2        18.6240  -15.9220   20.2830 H    2429  WAT2429     0.2052
   7285  O         18.7210  -15.2300   21.9550 O.3  2430  WAT2430    -0.4105
   7286  H1        17.9260  -15.2960   22.4840 H    2430  WAT2430     0.2052
   7287  H2        18.9250  -14.2950   21.9430 H    2430  WAT2430     0.2052
   7288  O         15.6620   -1.1910   25.9480 O.3  2431  WAT2431    -0.4105
   7289  H1        16.2580   -1.5120   25.2720 H    2431  WAT2431     0.2052
   7290  H2        15.9200   -1.6640   26.7400 H    2431  WAT2431     0.2052
   7291  O         16.2140   -0.5410   29.7780 O.3  2432  WAT2432    -0.4105
   7292  H1        15.7540    0.2100   29.4040 H    2432  WAT2432     0.2052
   7293  H2        15.5850   -1.2610   29.7200 H    2432  WAT2432     0.2052
   7294  O          6.6430   -2.2330   28.9530 O.3  2433  WAT2433    -0.4105
   7295  H1         7.1600   -2.8440   28.4280 H    2433  WAT2433     0.2052
   7296  H2         7.2930   -1.7300   29.4440 H    2433  WAT2433     0.2052
   7297  O         15.1530  -16.9000   28.4040 O.3  2434  WAT2434    -0.4105
   7298  H1        15.5930  -16.9560   27.5570 H    2434  WAT2434     0.2052
   7299  H2        14.8830  -15.9850   28.4760 H    2434  WAT2434     0.2052
   7300  O         17.0160  -17.2690   26.4150 O.3  2435  WAT2435    -0.4105
   7301  H1        16.9550  -18.2130   26.2680 H    2435  WAT2435     0.2052
   7302  H2        17.7960  -17.1610   26.9610 H    2435  WAT2435     0.2052
   7303  O          1.3220   -1.1300   25.3780 O.3  2436  WAT2436    -0.4105
   7304  H1         1.1540   -1.7630   26.0760 H    2436  WAT2436     0.2052
   7305  H2         0.4550   -0.9240   25.0270 H    2436  WAT2436     0.2052
   7306  O          1.9440  -17.2980   22.8810 O.3  2437  WAT2437    -0.4105
   7307  H1         2.7020  -17.1850   22.3070 H    2437  WAT2437     0.2052
   7308  H2         1.4820  -16.4610   22.8350 H    2437  WAT2437     0.2052
   7309  O          8.4860  -15.1840   25.8710 O.3  2438  WAT2438    -0.4105
   7310  H1         7.6730  -15.5580   25.5310 H    2438  WAT2438     0.2052
   7311  H2         8.9900  -15.9400   26.1730 H    2438  WAT2438     0.2052
   7312  O         12.9880  -18.5200   27.1090 O.3  2439  WAT2439    -0.4105
   7313  H1        13.5910  -17.9480   27.5840 H    2439  WAT2439     0.2052
   7314  H2        12.2480  -17.9560   26.8870 H    2439  WAT2439     0.2052
   7315  O         16.1320  -18.1180   22.3840 O.3  2440  WAT2440    -0.4105
   7316  H1        16.3270  -17.2190   22.6500 H    2440  WAT2440     0.2052
   7317  H2        15.3450  -18.3490   22.8770 H    2440  WAT2440     0.2052
   7318  O          2.9280   -2.4360   22.8230 O.3  2441  WAT2441    -0.4105
   7319  H1         2.4030   -2.0560   22.1190 H    2441  WAT2441     0.2052
   7320  H2         2.8520   -1.8110   23.5440 H    2441  WAT2441     0.2052
   7321  O          4.3170  -16.7720   21.4210 O.3  2442  WAT2442    -0.4105
   7322  H1         4.8460  -17.5590   21.2920 H    2442  WAT2442     0.2052
   7323  H2         4.9500  -16.0920   21.6550 H    2442  WAT2442     0.2052
   7324  O          6.5110  -17.0340   24.4760 O.3  2443  WAT2443    -0.4105
   7325  H1         5.8810  -17.7350   24.6430 H    2443  WAT2443     0.2052
   7326  H2         5.9710  -16.2740   24.2590 H    2443  WAT2443     0.2052
   7327  O         17.6840   -0.8780   24.1440 O.3  2444  WAT2444    -0.4105
   7328  H1        17.8600   -1.5640   23.5000 H    2444  WAT2444     0.2052
   7329  H2        16.9870   -0.3530   23.7520 H    2444  WAT2444     0.2052
   7330  O          5.5270   -0.4880   21.6980 O.3  2445  WAT2445    -0.4105
   7331  H1         6.2590   -0.7720   21.1500 H    2445  WAT2445     0.2052
   7332  H2         5.7870   -0.7270   22.5880 H    2445  WAT2445     0.2052
   7333  O          4.6890   -4.3720   21.7020 O.3  2446  WAT2446    -0.4105
   7334  H1         4.0600   -3.9030   22.2510 H    2446  WAT2446     0.2052
   7335  H2         4.8030   -5.2170   22.1370 H    2446  WAT2446     0.2052
   7336  O         12.1440  -10.3210    7.8520 O.3  2447  WAT2447    -0.4105
   7337  H1        12.0630  -11.2360    7.5820 H    2447  WAT2447     0.2052
   7338  H2        11.7300   -9.8240    7.1460 H    2447  WAT2447     0.2052
   7339  O         10.2750   -8.5430    9.7330 O.3  2448  WAT2448    -0.4105
   7340  H1         9.5000   -9.0230   10.0230 H    2448  WAT2448     0.2052
   7341  H2        10.9270   -9.2230    9.5590 H    2448  WAT2448     0.2052
   7342  O          4.2920   -8.2310   10.6110 O.3  2449  WAT2449    -0.4105
   7343  H1         3.4610   -8.4860   11.0110 H    2449  WAT2449     0.2052
   7344  H2         4.9000   -8.1600   11.3470 H    2449  WAT2449     0.2052
   7345  O         14.2960   -4.1370    8.5130 O.3  2450  WAT2450    -0.4105
   7346  H1        13.8340   -4.9080    8.8420 H    2450  WAT2450     0.2052
   7347  H2        15.1090   -4.1110    9.0190 H    2450  WAT2450     0.2052
   7348  O          4.2720   -4.1970   10.8070 O.3  2451  WAT2451    -0.4105
   7349  H1         4.5750   -5.0870   10.6280 H    2451  WAT2451     0.2052
   7350  H2         5.0170   -3.6400   10.5790 H    2451  WAT2451     0.2052
   7351  O          2.7010  -13.2710    4.3950 O.3  2452  WAT2452    -0.4105
   7352  H1         1.8130  -12.9290    4.2930 H    2452  WAT2452     0.2052
   7353  H2         2.9850  -13.4710    3.5030 H    2452  WAT2452     0.2052
   7354  O          0.6650  -10.6700   10.2790 O.3  2453  WAT2453    -0.4105
   7355  H1         1.2360  -11.4380   10.2800 H    2453  WAT2453     0.2052
   7356  H2         0.6650  -10.3720    9.3700 H    2453  WAT2453     0.2052
   7357  O         10.5230   -1.8510    8.1340 O.3  2454  WAT2454    -0.4105
   7358  H1         9.9040   -1.3960    7.5630 H    2454  WAT2454     0.2052
   7359  H2        11.3780   -1.6960    7.7330 H    2454  WAT2454     0.2052
   7360  O          9.7160   -5.8670    9.7400 O.3  2455  WAT2455    -0.4105
   7361  H1         9.6470   -6.8080    9.5790 H    2455  WAT2455     0.2052
   7362  H2        10.4780   -5.7770   10.3130 H    2455  WAT2455     0.2052
   7363  O          1.9070  -15.2620   12.0660 O.3  2456  WAT2456    -0.4105
   7364  H1         1.7270  -16.1590   12.3460 H    2456  WAT2456     0.2052
   7365  H2         1.5050  -14.7150   12.7410 H    2456  WAT2456     0.2052
   7366  O         10.7470  -13.0600    9.9670 O.3  2457  WAT2457    -0.4105
   7367  H1        11.1230  -13.9330    9.8550 H    2457  WAT2457     0.2052
   7368  H2        10.6490  -12.7250    9.0760 H    2457  WAT2457     0.2052
   7369  O          4.8770  -14.6880    5.4290 O.3  2458  WAT2458    -0.4105
   7370  H1         4.9840  -13.7870    5.7360 H    2458  WAT2458     0.2052
   7371  H2         3.9670  -14.7360    5.1380 H    2458  WAT2458     0.2052
   7372  O         14.5290  -15.5650    6.9000 O.3  2459  WAT2459    -0.4105
   7373  H1        15.3500  -16.0560    6.9430 H    2459  WAT2459     0.2052
   7374  H2        14.5630  -14.9760    7.6530 H    2459  WAT2459     0.2052
   7375  O          2.5260  -12.7660   10.6740 O.3  2460  WAT2460    -0.4105
   7376  H1         3.2070  -12.5020   11.2930 H    2460  WAT2460     0.2052
   7377  H2         2.2110  -13.6060   11.0080 H    2460  WAT2460     0.2052
   7378  O          6.7180  -11.7190    9.7620 O.3  2461  WAT2461    -0.4105
   7379  H1         7.2260  -11.2210   10.4020 H    2461  WAT2461     0.2052
   7380  H2         7.2500  -12.4960    9.5850 H    2461  WAT2461     0.2052
   7381  O         18.8190  -13.5490   13.4640 O.3  2462  WAT2462    -0.4105
   7382  H1        18.1140  -13.1600   12.9460 H    2462  WAT2462     0.2052
   7383  H2        19.0850  -12.8540   14.0670 H    2462  WAT2462     0.2052
   7384  O          5.0020  -17.0790   14.0280 O.3  2463  WAT2463    -0.4105
   7385  H1         5.0040  -16.5620   13.2220 H    2463  WAT2463     0.2052
   7386  H2         4.1720  -17.5560   14.0050 H    2463  WAT2463     0.2052
   7387  O         11.3890   -6.9670    5.5270 O.3  2464  WAT2464    -0.4105
   7388  H1        10.7710   -6.5020    4.9630 H    2464  WAT2464     0.2052
   7389  H2        11.9010   -6.2750    5.9440 H    2464  WAT2464     0.2052
   7390  O          6.2520   -7.4400   12.2050 O.3  2465  WAT2465    -0.4105
   7391  H1         5.9190   -6.8130   12.8470 H    2465  WAT2465     0.2052
   7392  H2         6.4290   -6.9140   11.4250 H    2465  WAT2465     0.2052
   7393  O         14.7650  -13.6250    9.6730 O.3  2466  WAT2466    -0.4105
   7394  H1        14.0610  -13.3370   10.2530 H    2466  WAT2466     0.2052
   7395  H2        15.1270  -12.8150    9.3130 H    2466  WAT2466     0.2052
   7396  O          4.6830  -15.3680   12.0350 O.3  2467  WAT2467    -0.4105
   7397  H1         5.0250  -14.5240   11.7400 H    2467  WAT2467     0.2052
   7398  H2         3.7450  -15.2200   12.1510 H    2467  WAT2467     0.2052
   7399  O          5.4640   -5.4720   14.0200 O.3  2468  WAT2468    -0.4105
   7400  H1         6.0810   -4.7970   13.7390 H    2468  WAT2468     0.2052
   7401  H2         4.6030   -5.0630   13.9290 H    2468  WAT2468     0.2052
   7402  O          0.7570   -6.2820    2.9010 O.3  2469  WAT2469    -0.4105
   7403  H1         0.3800   -5.7930    2.1690 H    2469  WAT2469     0.2052
   7404  H2         1.0150   -5.6090    3.5310 H    2469  WAT2469     0.2052
   7405  O         16.3820   -4.0080   11.9360 O.3  2470  WAT2470    -0.4105
   7406  H1        15.6980   -3.3380   11.9270 H    2470  WAT2470     0.2052
   7407  H2        16.9210   -3.8100   11.1700 H    2470  WAT2470     0.2052
   7408  O         17.8340  -14.1800   10.0640 O.3  2471  WAT2471    -0.4105
   7409  H1        16.8870  -14.1460   10.1950 H    2471  WAT2471     0.2052
   7410  H2        18.1590  -13.3660   10.4490 H    2471  WAT2471     0.2052
   7411  O          8.3660  -17.8800    8.3590 O.3  2472  WAT2472    -0.4105
   7412  H1         8.6740  -18.4350    7.6430 H    2472  WAT2472     0.2052
   7413  H2         7.4360  -17.7460    8.1770 H    2472  WAT2472     0.2052
   7414  O         13.9180   -2.1630   10.6500 O.3  2473  WAT2473    -0.4105
   7415  H1        13.9300   -2.5670    9.7820 H    2473  WAT2473     0.2052
   7416  H2        13.3650   -1.3890   10.5460 H    2473  WAT2473     0.2052
   7417  O         15.2120   -5.4420    5.7390 O.3  2474  WAT2474    -0.4105
   7418  H1        15.1020   -6.3840    5.8640 H    2474  WAT2474     0.2052
   7419  H2        15.2090   -5.0800    6.6250 H    2474  WAT2474     0.2052
   7420  O         13.3160   -7.2600   11.9780 O.3  2475  WAT2475    -0.4105
   7421  H1        13.7330   -7.4740   11.1440 H    2475  WAT2475     0.2052
   7422  H2        14.0400   -7.0030   12.5490 H    2475  WAT2475     0.2052
   7423  O         10.7540   -9.8150    5.0950 O.3  2476  WAT2476    -0.4105
   7424  H1         9.8270   -9.8810    5.3240 H    2476  WAT2476     0.2052
   7425  H2        10.9070   -8.8770    4.9810 H    2476  WAT2476     0.2052
   7426  O         10.7410  -13.5440    2.0920 O.3  2477  WAT2477    -0.4105
   7427  H1         9.8010  -13.3820    2.1770 H    2477  WAT2477     0.2052
   7428  H2        11.0590  -12.8250    1.5460 H    2477  WAT2477     0.2052
   7429  O         17.2620   -8.8620   12.0700 O.3  2478  WAT2478    -0.4105
   7430  H1        16.4340   -8.7920   11.5950 H    2478  WAT2478     0.2052
   7431  H2        17.8570   -8.2760   11.6020 H    2478  WAT2478     0.2052
   7432  O         14.7840   -8.2530    5.5990 O.3  2479  WAT2479    -0.4105
   7433  H1        14.1650   -8.5910    4.9520 H    2479  WAT2479     0.2052
   7434  H2        14.7660   -8.8970    6.3070 H    2479  WAT2479     0.2052
   7435  O         14.2270  -12.0750   13.0160 O.3  2480  WAT2480    -0.4105
   7436  H1        13.8140  -11.2490   13.2700 H    2480  WAT2480     0.2052
   7437  H2        13.4940  -12.6600   12.8230 H    2480  WAT2480     0.2052
   7438  O          6.3600   -9.2890    7.8770 O.3  2481  WAT2481    -0.4105
   7439  H1         5.9560  -10.0010    7.3820 H    2481  WAT2481     0.2052
   7440  H2         6.4460   -9.6330    8.7660 H    2481  WAT2481     0.2052
   7441  O          6.8280   -5.6020   10.0410 O.3  2482  WAT2482    -0.4105
   7442  H1         6.5310   -6.2070    9.3620 H    2482  WAT2482     0.2052
   7443  H2         7.7780   -5.5640    9.9300 H    2482  WAT2482     0.2052
   7444  O          5.0730  -12.5140   11.6570 O.3  2483  WAT2483    -0.4105
   7445  H1         5.6240  -12.4050   10.8830 H    2483  WAT2483     0.2052
   7446  H2         5.5870  -12.1410   12.3730 H    2483  WAT2483     0.2052
   7447  O         14.9170   -2.0290   13.7040 O.3  2484  WAT2484    -0.4105
   7448  H1        14.4400   -1.2220   13.5110 H    2484  WAT2484     0.2052
   7449  H2        14.2330   -2.6810   13.8560 H    2484  WAT2484     0.2052
   7450  O          5.9200   -5.8640   16.6920 O.3  2485  WAT2485    -0.4105
   7451  H1         5.0230   -5.6400   16.9390 H    2485  WAT2485     0.2052
   7452  H2         5.9450   -5.7400   15.7430 H    2485  WAT2485     0.2052
   7453  O         12.9600   -9.0150    2.6060 O.3  2486  WAT2486    -0.4105
   7454  H1        13.4000   -9.8520    2.4600 H    2486  WAT2486     0.2052
   7455  H2        13.6730   -8.3820    2.6930 H    2486  WAT2486     0.2052
   7456  O          4.7470   -8.9920   15.2680 O.3  2487  WAT2487    -0.4105
   7457  H1         4.6080   -8.1200   15.6370 H    2487  WAT2487     0.2052
   7458  H2         3.8650   -9.3350   15.1230 H    2487  WAT2487     0.2052
   7459  O         11.0700   -4.0750    6.5740 O.3  2488  WAT2488    -0.4105
   7460  H1        11.5100   -3.3320    6.1600 H    2488  WAT2488     0.2052
   7461  H2        11.0090   -3.8320    7.4980 H    2488  WAT2488     0.2052
   7462  O          6.5450   -3.0500   17.4760 O.3  2489  WAT2489    -0.4105
   7463  H1         6.5170   -2.6460   16.6090 H    2489  WAT2489     0.2052
   7464  H2         6.3820   -3.9790   17.3130 H    2489  WAT2489     0.2052
   7465  O         16.5420  -17.7600    0.9200 O.3  2490  WAT2490    -0.4105
   7466  H1        16.2290  -17.6680    1.8200 H    2490  WAT2490     0.2052
   7467  H2        17.3030  -17.1820    0.8700 H    2490  WAT2490     0.2052
   7468  O          3.0600  -10.3940    5.3780 O.3  2491  WAT2491    -0.4105
   7469  H1         2.9400   -9.6680    4.7660 H    2491  WAT2491     0.2052
   7470  H2         2.7500  -11.1640    4.9010 H    2491  WAT2491     0.2052
   7471  O         18.4970   -2.2680   18.7730 O.3  2492  WAT2492    -0.4105
   7472  H1        18.9720   -1.7890   19.4520 H    2492  WAT2492     0.2052
   7473  H2        19.1170   -2.3360   18.0470 H    2492  WAT2492     0.2052
   7474  O          0.6990   -7.2230   11.1850 O.3  2493  WAT2493    -0.4105
   7475  H1         0.7770   -7.0880   10.2400 H    2493  WAT2493     0.2052
   7476  H2         1.3130   -7.9310   11.3780 H    2493  WAT2493     0.2052
   7477  O          1.9440   -5.5230    7.5960 O.3  2494  WAT2494    -0.4105
   7478  H1         1.5360   -5.3810    6.7410 H    2494  WAT2494     0.2052
   7479  H2         2.8350   -5.8070    7.3930 H    2494  WAT2494     0.2052
   7480  O         17.9000   -5.0760   15.9330 O.3  2495  WAT2495    -0.4105
   7481  H1        18.0260   -5.3150   15.0140 H    2495  WAT2495     0.2052
   7482  H2        17.9420   -5.9080   16.4050 H    2495  WAT2495     0.2052
   7483  O         11.7620   -1.3740   14.5020 O.3  2496  WAT2496    -0.4105
   7484  H1        12.2760   -1.4630   15.3040 H    2496  WAT2496     0.2052
   7485  H2        10.9180   -1.0280   14.7950 H    2496  WAT2496     0.2052
   7486  O         13.7370   -1.0880    3.9310 O.3  2497  WAT2497    -0.4105
   7487  H1        13.5770   -1.3780    4.8290 H    2497  WAT2497     0.2052
   7488  H2        13.5720   -1.8640    3.3950 H    2497  WAT2497     0.2052
   7489  O          6.2160   -1.3080    5.7080 O.3  2498  WAT2498    -0.4105
   7490  H1         6.0400   -2.2250    5.4950 H    2498  WAT2498     0.2052
   7491  H2         5.3610   -0.9490    5.9480 H    2498  WAT2498     0.2052
   7492  O         13.4400   -3.5790    2.4900 O.3  2499  WAT2499    -0.4105
   7493  H1        12.7460   -3.5820    1.8310 H    2499  WAT2499     0.2052
   7494  H2        14.1820   -4.0030    2.0600 H    2499  WAT2499     0.2052
   7495  O         13.0050   -1.9530    6.5650 O.3  2500  WAT2500    -0.4105
   7496  H1        13.4600   -2.7340    6.8790 H    2500  WAT2500     0.2052
   7497  H2        13.3440   -1.2420    7.1090 H    2500  WAT2500     0.2052
   7498  O         17.7520  -13.0230   16.8980 O.3  2501  WAT2501    -0.4105
   7499  H1        17.1370  -12.5150   16.3690 H    2501  WAT2501     0.2052
   7500  H2        17.4320  -13.9230   16.8400 H    2501  WAT2501     0.2052
   7501  O          0.7550   -6.1810   13.7240 O.3  2502  WAT2502    -0.4105
   7502  H1         0.9180   -6.6510   12.9060 H    2502  WAT2502     0.2052
   7503  H2         1.2200   -6.6890   14.3890 H    2502  WAT2502     0.2052
   7504  O          5.5270  -17.0510    8.7600 O.3  2503  WAT2503    -0.4105
   7505  H1         5.0830  -16.2700    8.4290 H    2503  WAT2503     0.2052
   7506  H2         6.0850  -16.7280    9.4680 H    2503  WAT2503     0.2052
   7507  O          9.8140  -14.1840   14.3640 O.3  2504  WAT2504    -0.4105
   7508  H1         9.3520  -13.9760   15.1760 H    2504  WAT2504     0.2052
   7509  H2         9.4110  -14.9980   14.0610 H    2504  WAT2504     0.2052
   7510  O         14.8140  -12.9630   15.4940 O.3  2505  WAT2505    -0.4105
   7511  H1        13.9630  -13.2620   15.8150 H    2505  WAT2505     0.2052
   7512  H2        14.6540  -12.7190   14.5820 H    2505  WAT2505     0.2052
   7513  O         11.9090  -11.4630   17.5930 O.3  2506  WAT2506    -0.4105
   7514  H1        12.2340  -12.2960   17.2540 H    2506  WAT2506     0.2052
   7515  H2        12.6970  -10.9400   17.7410 H    2506  WAT2506     0.2052
   7516  O          8.6430  -17.4300    3.6410 O.3  2507  WAT2507    -0.4105
   7517  H1         8.0180  -17.4340    4.3660 H    2507  WAT2507     0.2052
   7518  H2         8.5560  -18.2970    3.2450 H    2507  WAT2507     0.2052
   7519  O          7.5640  -16.5060   10.6190 O.3  2508  WAT2508    -0.4105
   7520  H1         7.8620  -15.6000   10.5390 H    2508  WAT2508     0.2052
   7521  H2         8.1130  -16.9940   10.0050 H    2508  WAT2508     0.2052
   7522  O          5.3180  -11.9270    6.4890 O.3  2509  WAT2509    -0.4105
   7523  H1         5.0920  -12.1440    7.3930 H    2509  WAT2509     0.2052
   7524  H2         4.5370  -11.4950    6.1430 H    2509  WAT2509     0.2052
   7525  O         12.5480  -11.9210    5.0880 O.3  2510  WAT2510    -0.4105
   7526  H1        11.9490  -11.1970    4.9040 H    2510  WAT2510     0.2052
   7527  H2        13.0960  -11.9830    4.3050 H    2510  WAT2510     0.2052
   7528  O          7.7580  -11.0290   17.1550 O.3  2511  WAT2511    -0.4105
   7529  H1         7.6620  -11.9690   17.0050 H    2511  WAT2511     0.2052
   7530  H2         8.6010  -10.8070   16.7590 H    2511  WAT2511     0.2052
   7531  O         11.1540  -13.2850    7.1180 O.3  2512  WAT2512    -0.4105
   7532  H1        11.5470  -12.9670    6.3050 H    2512  WAT2512     0.2052
   7533  H2        11.5160  -14.1640    7.2320 H    2512  WAT2512     0.2052
   7534  O          2.8890  -14.6170   15.3080 O.3  2513  WAT2513    -0.4105
   7535  H1         2.4950  -13.7700   15.5150 H    2513  WAT2513     0.2052
   7536  H2         2.2010  -15.2550   15.4990 H    2513  WAT2513     0.2052
   7537  O          9.4640  -14.5340   18.3780 O.3  2514  WAT2514    -0.4105
   7538  H1         8.7730  -14.7270   19.0120 H    2514  WAT2514     0.2052
   7539  H2        10.2070  -14.2510   18.9100 H    2514  WAT2514     0.2052
   7540  O          0.1910  -16.6950    9.3410 O.3  2515  WAT2515    -0.4105
   7541  H1        -0.0980  -16.1240   10.0530 H    2515  WAT2515     0.2052
   7542  H2         0.9350  -17.1740    9.7040 H    2515  WAT2515     0.2052
   7543  O          0.3780  -12.7530    0.5510 O.3  2516  WAT2516    -0.4105
   7544  H1         0.2950  -11.8100    0.6930 H    2516  WAT2516     0.2052
   7545  H2         0.0260  -12.8950   -0.3280 H    2516  WAT2516     0.2052
   7546  O         11.7400  -10.6940   11.2130 O.3  2517  WAT2517    -0.4105
   7547  H1        11.0080  -10.1850   11.5620 H    2517  WAT2517     0.2052
   7548  H2        11.3420  -11.5110   10.9120 H    2517  WAT2517     0.2052
   7549  O          8.1780  -14.0190    9.6180 O.3  2518  WAT2518    -0.4105
   7550  H1         8.1810  -14.4600    8.7690 H    2518  WAT2518     0.2052
   7551  H2         9.0730  -13.6970    9.7250 H    2518  WAT2518     0.2052
   7552  O          4.0280  -14.1360    8.5780 O.3  2519  WAT2519    -0.4105
   7553  H1         3.6880  -13.6590    9.3340 H    2519  WAT2519     0.2052
   7554  H2         3.2660  -14.5900    8.2180 H    2519  WAT2519     0.2052
   7555  O          8.2400  -13.0170    2.6090 O.3  2520  WAT2520    -0.4105
   7556  H1         8.3610  -13.0590    3.5580 H    2520  WAT2520     0.2052
   7557  H2         7.8540  -12.1550    2.4540 H    2520  WAT2520     0.2052
   7558  O         12.2020  -15.2410   10.6250 O.3  2521  WAT2521    -0.4105
   7559  H1        12.2200  -14.7900   11.4690 H    2521  WAT2521     0.2052
   7560  H2        11.9540  -16.1400   10.8390 H    2521  WAT2521     0.2052
   7561  O          7.2520  -10.7070    2.0070 O.3  2522  WAT2522    -0.4105
   7562  H1         6.6830  -11.1560    1.3810 H    2522  WAT2522     0.2052
   7563  H2         7.9610  -10.3480    1.4740 H    2522  WAT2522     0.2052
   7564  O         15.6300  -17.8280   16.4640 O.3  2523  WAT2523    -0.4105
   7565  H1        15.9540  -18.5590   16.9900 H    2523  WAT2523     0.2052
   7566  H2        15.6650  -18.1460   15.5620 H    2523  WAT2523     0.2052
   7567  O          2.3290   -6.8060   15.8840 O.3  2524  WAT2524    -0.4105
   7568  H1         1.9440   -7.4470   16.4820 H    2524  WAT2524     0.2052
   7569  H2         2.6400   -6.1030   16.4530 H    2524  WAT2524     0.2052
   7570  O          8.4780   -9.9590   11.3650 O.3  2525  WAT2525    -0.4105
   7571  H1         8.8450  -10.4330   12.1110 H    2525  WAT2525     0.2052
   7572  H2         8.2890   -9.0840   11.7060 H    2525  WAT2525     0.2052
   7573  O          1.3420  -15.2140    7.4940 O.3  2526  WAT2526    -0.4105
   7574  H1         1.0570  -15.5790    8.3320 H    2526  WAT2526     0.2052
   7575  H2         1.2800  -15.9460    6.8800 H    2526  WAT2526     0.2052
   7576  O          6.2680  -10.9180   13.6830 O.3  2527  WAT2527    -0.4105
   7577  H1         5.9640  -10.0380   13.9080 H    2527  WAT2527     0.2052
   7578  H2         7.2230  -10.8580   13.7190 H    2527  WAT2527     0.2052
   7579  O          4.7970   -6.7120    4.2800 O.3  2528  WAT2528    -0.4105
   7580  H1         4.0230   -7.2520    4.1200 H    2528  WAT2528     0.2052
   7581  H2         5.5260   -7.2310    3.9420 H    2528  WAT2528     0.2052
   7582  O         15.5550   -7.7150   10.0730 O.3  2529  WAT2529    -0.4105
   7583  H1        16.2750   -7.2190    9.6820 H    2529  WAT2529     0.2052
   7584  H2        15.3540   -8.3930    9.4280 H    2529  WAT2529     0.2052
   7585  O         11.0160  -16.3210    4.2150 O.3  2530  WAT2530    -0.4105
   7586  H1        10.2030  -16.8200    4.1400 H    2530  WAT2530     0.2052
   7587  H2        10.8230  -15.4810    3.7990 H    2530  WAT2530     0.2052
   7588  O         10.9370   -7.6440   15.9590 O.3  2531  WAT2531    -0.4105
   7589  H1        10.8710   -8.5650   15.7050 H    2531  WAT2531     0.2052
   7590  H2        10.3080   -7.5470   16.6740 H    2531  WAT2531     0.2052
   7591  O         13.7310  -11.9490    2.5120 O.3  2532  WAT2532    -0.4105
   7592  H1        14.6190  -11.6380    2.3370 H    2532  WAT2532     0.2052
   7593  H2        13.7020  -12.8220    2.1200 H    2532  WAT2532     0.2052
   7594  O          4.8400   -7.0440    7.9180 O.3  2533  WAT2533    -0.4105
   7595  H1         5.3580   -7.8470    7.8630 H    2533  WAT2533     0.2052
   7596  H2         4.3890   -7.1060    8.7590 H    2533  WAT2533     0.2052
   7597  O          9.7270   -5.7770    3.1910 O.3  2534  WAT2534    -0.4105
   7598  H1        10.0690   -5.0330    2.6950 H    2534  WAT2534     0.2052
   7599  H2         8.8980   -5.4640    3.5530 H    2534  WAT2534     0.2052
   7600  O          2.3250  -10.0770   14.8300 O.3  2535  WAT2535    -0.4105
   7601  H1         1.9660   -9.4120   15.4180 H    2535  WAT2535     0.2052
   7602  H2         2.0300  -10.9090   15.2020 H    2535  WAT2535     0.2052
   7603  O          5.5260   -9.6190   17.7140 O.3  2536  WAT2536    -0.4105
   7604  H1         5.2260   -9.4730   16.8170 H    2536  WAT2536     0.2052
   7605  H2         6.2970  -10.1780   17.6220 H    2536  WAT2536     0.2052
   7606  O         10.8690   -4.8220   15.7100 O.3  2537  WAT2537    -0.4105
   7607  H1        10.8830   -5.7540   15.4920 H    2537  WAT2537     0.2052
   7608  H2        10.1610   -4.7360   16.3490 H    2537  WAT2537     0.2052
   7609  O         16.0030  -10.6380    1.9800 O.3  2538  WAT2538    -0.4105
   7610  H1        15.9190  -10.2070    1.1290 H    2538  WAT2538     0.2052
   7611  H2        16.7220  -10.1780    2.4120 H    2538  WAT2538     0.2052
   7612  O         17.0800   -8.1810   15.0570 O.3  2539  WAT2539    -0.4105
   7613  H1        16.3550   -7.5880   14.8600 H    2539  WAT2539     0.2052
   7614  H2        17.6080   -8.1890   14.2580 H    2539  WAT2539     0.2052
   7615  O         17.0310   -3.7840    4.7080 O.3  2540  WAT2540    -0.4105
   7616  H1        16.3890   -4.4380    4.9820 H    2540  WAT2540     0.2052
   7617  H2        16.6440   -3.3780    3.9320 H    2540  WAT2540     0.2052
   7618  O         12.6100   -6.4550    8.5550 O.3  2541  WAT2541    -0.4105
   7619  H1        12.9620   -7.0530    7.8950 H    2541  WAT2541     0.2052
   7620  H2        11.7260   -6.7810    8.7260 H    2541  WAT2541     0.2052
   7621  O          8.6960   -5.6960    5.9620 O.3  2542  WAT2542    -0.4105
   7622  H1         9.3830   -5.1490    6.3430 H    2542  WAT2542     0.2052
   7623  H2         7.9100   -5.1510    5.9970 H    2542  WAT2542     0.2052
   7624  O          0.8360  -10.0780    1.4540 O.3  2543  WAT2543    -0.4105
   7625  H1         1.7050   -9.7960    1.7370 H    2543  WAT2543     0.2052
   7626  H2         0.3450   -9.2650    1.3390 H    2543  WAT2543     0.2052
   7627  O          7.9990   -8.6910    5.5750 O.3  2544  WAT2544    -0.4105
   7628  H1         8.4550   -7.8800    5.8010 H    2544  WAT2544     0.2052
   7629  H2         7.6480   -9.0090    6.4060 H    2544  WAT2544     0.2052
   7630  O         10.3020   -3.1800   12.8040 O.3  2545  WAT2545    -0.4105
   7631  H1        10.9460   -2.9740   13.4810 H    2545  WAT2545     0.2052
   7632  H2        10.6650   -3.9410   12.3510 H    2545  WAT2545     0.2052
   7633  O          3.9000  -18.3470    6.0470 O.3  2546  WAT2546    -0.4105
   7634  H1         3.7720  -18.3550    6.9950 H    2546  WAT2546     0.2052
   7635  H2         3.0760  -18.0090    5.6960 H    2546  WAT2546     0.2052
   7636  O         11.5750   -5.1770   11.5220 O.3  2547  WAT2547    -0.4105
   7637  H1        12.2180   -5.8780   11.6350 H    2547  WAT2547     0.2052
   7638  H2        12.1000   -4.3970   11.3410 H    2547  WAT2547     0.2052
   7639  O         15.4210   -4.8920    1.2460 O.3  2548  WAT2548    -0.4105
   7640  H1        15.1950   -5.6090    1.8380 H    2548  WAT2548     0.2052
   7641  H2        15.0310   -5.1410    0.4080 H    2548  WAT2548     0.2052
   7642  O         13.3490   -4.3780   14.7250 O.3  2549  WAT2549    -0.4105
   7643  H1        13.6850   -3.7910   15.4030 H    2549  WAT2549     0.2052
   7644  H2        12.4290   -4.5080   14.9550 H    2549  WAT2549     0.2052
   7645  O          1.2030   -0.8660    2.0200 O.3  2550  WAT2550    -0.4105
   7646  H1         1.5620   -0.2670    1.3660 H    2550  WAT2550     0.2052
   7647  H2         1.0620   -0.3200    2.7930 H    2550  WAT2550     0.2052
   7648  O          0.9000  -16.5880   15.5080 O.3  2551  WAT2551    -0.4105
   7649  H1         0.1850  -16.3880   16.1130 H    2551  WAT2551     0.2052
   7650  H2         1.3190  -17.3640   15.8790 H    2551  WAT2551     0.2052
   7651  O         15.0030   -6.9750    2.9070 O.3  2552  WAT2552    -0.4105
   7652  H1        14.7150   -6.5140    3.6950 H    2552  WAT2552     0.2052
   7653  H2        15.7980   -7.4350    3.1750 H    2552  WAT2552     0.2052
   7654  O          1.1870   -2.6000   16.4940 O.3  2553  WAT2553    -0.4105
   7655  H1         1.2960   -3.5410   16.3540 H    2553  WAT2553     0.2052
   7656  H2         0.5350   -2.3350   15.8460 H    2553  WAT2553     0.2052
   7657  O          9.1780   -4.3280   17.8940 O.3  2554  WAT2554    -0.4105
   7658  H1         8.8580   -5.0480   18.4390 H    2554  WAT2554     0.2052
   7659  H2         8.5040   -3.6530   17.9680 H    2554  WAT2554     0.2052
   7660  O          7.2200   -3.4820    2.8370 O.3  2555  WAT2555    -0.4105
   7661  H1         7.2110   -2.7490    2.2220 H    2555  WAT2555     0.2052
   7662  H2         6.2990   -3.7290    2.9300 H    2555  WAT2555     0.2052
   7663  O          2.8200   -8.2610    3.5820 O.3  2556  WAT2556    -0.4105
   7664  H1         2.2130   -7.5210    3.5920 H    2556  WAT2556     0.2052
   7665  H2         3.2950   -8.1710    2.7560 H    2556  WAT2556     0.2052
   7666  O         12.3930  -14.0960   13.2580 O.3  2557  WAT2557    -0.4105
   7667  H1        12.7620  -14.9160   13.5860 H    2557  WAT2557     0.2052
   7668  H2        11.5330  -14.0360   13.6730 H    2557  WAT2557     0.2052
   7669  O         15.7600  -15.1400    4.0660 O.3  2558  WAT2558    -0.4105
   7670  H1        15.1310  -15.0360    3.3520 H    2558  WAT2558     0.2052
   7671  H2        15.2650  -14.9200    4.8560 H    2558  WAT2558     0.2052
   7672  O         10.2050   -3.4200    1.5000 O.3  2559  WAT2559    -0.4105
   7673  H1        10.3070   -3.6230    0.5700 H    2559  WAT2559     0.2052
   7674  H2         9.3060   -3.6740    1.7050 H    2559  WAT2559     0.2052
   7675  O          7.7280  -12.8620    5.4820 O.3  2560  WAT2560    -0.4105
   7676  H1         7.0200  -12.3930    5.9240 H    2560  WAT2560     0.2052
   7677  H2         8.0130  -13.5190    6.1170 H    2560  WAT2560     0.2052
   7678  O          9.3540  -11.4420   13.4820 O.3  2561  WAT2561    -0.4105
   7679  H1         9.8520  -10.9670   14.1470 H    2561  WAT2561     0.2052
   7680  H2         9.4960  -12.3660   13.6890 H    2561  WAT2561     0.2052
   7681  O         11.7600  -16.1360    6.9220 O.3  2562  WAT2562    -0.4105
   7682  H1        11.6360  -16.1180    5.9730 H    2562  WAT2562     0.2052
   7683  H2        12.7080  -16.0890    7.0420 H    2562  WAT2562     0.2052
   7684  O          8.8470   -0.9010    6.1950 O.3  2563  WAT2563    -0.4105
   7685  H1         9.1010   -0.9390    5.2730 H    2563  WAT2563     0.2052
   7686  H2         7.8990   -1.0280    6.1870 H    2563  WAT2563     0.2052
   7687  O          5.9320  -14.5530    2.8570 O.3  2564  WAT2564    -0.4105
   7688  H1         6.7810  -14.1160    2.7910 H    2564  WAT2564     0.2052
   7689  H2         5.5650  -14.2410    3.6850 H    2564  WAT2564     0.2052
   7690  O         16.5600  -15.2250   14.3240 O.3  2565  WAT2565    -0.4105
   7691  H1        16.0580  -14.4850   14.6640 H    2565  WAT2565     0.2052
   7692  H2        17.3760  -14.8370   14.0080 H    2565  WAT2565     0.2052
   7693  O         14.8530   -9.9820    7.7700 O.3  2566  WAT2566    -0.4105
   7694  H1        13.9120   -9.9670    7.9450 H    2566  WAT2566     0.2052
   7695  H2        15.1670  -10.7680    8.2170 H    2566  WAT2566     0.2052
   7696  O          4.8310   -8.3000    1.3310 O.3  2567  WAT2567    -0.4105
   7697  H1         5.5970   -8.4120    1.8930 H    2567  WAT2567     0.2052
   7698  H2         4.9080   -8.9960    0.6790 H    2567  WAT2567     0.2052
   7699  O          3.5250  -10.8670    2.0140 O.3  2568  WAT2568    -0.4105
   7700  H1         3.6060  -11.8150    2.1260 H    2568  WAT2568     0.2052
   7701  H2         4.4170  -10.5370    2.1200 H    2568  WAT2568     0.2052
   7702  O         16.8550   -2.8110    9.4460 O.3  2569  WAT2569    -0.4105
   7703  H1        16.9800   -1.9880    9.9180 H    2569  WAT2569     0.2052
   7704  H2        17.7220   -3.0220    9.0980 H    2569  WAT2569     0.2052
   7705  O          4.3270   -0.7180    9.1180 O.3  2570  WAT2570    -0.4105
   7706  H1         5.0630   -1.2660    9.3880 H    2570  WAT2570     0.2052
   7707  H2         4.7110    0.1480    8.9780 H    2570  WAT2570     0.2052
   7708  O          1.2110   -4.6500    4.9920 O.3  2571  WAT2571    -0.4105
   7709  H1         0.2850   -4.4080    4.9820 H    2571  WAT2571     0.2052
   7710  H2         1.6770   -3.8230    4.8700 H    2571  WAT2571     0.2052
   7711  O          3.3330   -1.5330   18.3060 O.3  2572  WAT2572    -0.4105
   7712  H1         4.1340   -1.2120   18.7200 H    2572  WAT2572     0.2052
   7713  H2         2.8180   -1.8940   19.0280 H    2572  WAT2572     0.2052
   7714  O          7.4370   -1.5450    0.9400 O.3  2573  WAT2573    -0.4105
   7715  H1         8.2300   -1.2560    0.4880 H    2573  WAT2573     0.2052
   7716  H2         6.9180   -1.9760    0.2610 H    2573  WAT2573     0.2052
   7717  O         12.1690   -5.4250   18.2540 O.3  2574  WAT2574    -0.4105
   7718  H1        11.5630   -5.4020   17.5130 H    2574  WAT2574     0.2052
   7719  H2        11.8650   -6.1570   18.7900 H    2574  WAT2574     0.2052
   7720  O         13.5990   -1.6970   16.8650 O.3  2575  WAT2575    -0.4105
   7721  H1        14.5510   -1.7810   16.8150 H    2575  WAT2575     0.2052
   7722  H2        13.4520   -1.0330   17.5380 H    2575  WAT2575     0.2052
   7723  O         16.4900   -2.3180    2.3640 O.3  2576  WAT2576    -0.4105
   7724  H1        16.2040   -2.7310    1.5490 H    2576  WAT2576     0.2052
   7725  H2        16.2920   -1.3890    2.2440 H    2576  WAT2576     0.2052
   7726  O          1.0520   -9.0460   17.2500 O.3  2577  WAT2577    -0.4105
   7727  H1         1.5560   -9.6250   17.8210 H    2577  WAT2577     0.2052
   7728  H2         0.3130   -8.7620   17.7870 H    2577  WAT2577     0.2052
   7729  O          7.9550   -6.3240    0.8040 O.3  2578  WAT2578    -0.4105
   7730  H1         7.8500   -6.9390    1.5310 H    2578  WAT2578     0.2052
   7731  H2         7.7870   -6.8480    0.0210 H    2578  WAT2578     0.2052
   7732  O          8.1060   -7.6390   16.7830 O.3  2579  WAT2579    -0.4105
   7733  H1         7.3410   -7.0700   16.6990 H    2579  WAT2579     0.2052
   7734  H2         8.2880   -7.9310   15.8900 H    2579  WAT2579     0.2052
   7735  O         11.1950   -7.2620    1.4090 O.3  2580  WAT2580    -0.4105
   7736  H1        10.6460   -6.8150    2.0530 H    2580  WAT2580     0.2052
   7737  H2        11.8170   -7.7670    1.9320 H    2580  WAT2580     0.2052
   7738  O         15.2490   -5.9080   17.3410 O.3  2581  WAT2581    -0.4105
   7739  H1        15.9900   -5.5710   16.8380 H    2581  WAT2581     0.2052
   7740  H2        14.4860   -5.7390   16.7880 H    2581  WAT2581     0.2052
   7741  O          3.0850  -10.9030   18.1450 O.3  2582  WAT2582    -0.4105
   7742  H1         3.1250  -11.2010   19.0530 H    2582  WAT2582     0.2052
   7743  H2         3.9390  -10.5020   17.9860 H    2582  WAT2582     0.2052
   7744  O          6.8630   -8.3030    3.3050 O.3  2583  WAT2583    -0.4105
   7745  H1         7.2840   -8.4690    4.1480 H    2583  WAT2583     0.2052
   7746  H2         6.9880   -9.1130    2.8110 H    2583  WAT2583     0.2052
   7747  O          5.0250  -12.3240   16.1120 O.3  2584  WAT2584    -0.4105
   7748  H1         4.4950  -12.8150   15.4850 H    2584  WAT2584     0.2052
   7749  H2         5.6940  -11.8950   15.5780 H    2584  WAT2584     0.2052
   7750  O          9.3750   -9.2800    0.5530 O.3  2585  WAT2585    -0.4105
   7751  H1         9.8960   -9.9950    0.1870 H    2585  WAT2585     0.2052
   7752  H2        10.0220   -8.6410    0.8530 H    2585  WAT2585     0.2052
   7753  O         13.9230   -7.8570   15.8760 O.3  2586  WAT2586    -0.4105
   7754  H1        14.3370   -7.7020   16.7250 H    2586  WAT2586     0.2052
   7755  H2        12.9880   -7.7310   16.0390 H    2586  WAT2586     0.2052
   7756  O         14.3950  -10.5170   17.8800 O.3  2587  WAT2587    -0.4105
   7757  H1        14.9770  -11.2720   17.7920 H    2587  WAT2587     0.2052
   7758  H2        14.5720   -9.9860   17.1030 H    2587  WAT2587     0.2052
   7759  O          5.5130  -15.3570   16.1920 O.3  2588  WAT2588    -0.4105
   7760  H1         5.4180  -15.9750   15.4670 H    2588  WAT2588     0.2052
   7761  H2         4.9320  -14.6310   15.9650 H    2588  WAT2588     0.2052
   7762  O          8.2790  -16.8000   13.2250 O.3  2589  WAT2589    -0.4105
   7763  H1         7.8300  -16.7780   12.3790 H    2589  WAT2589     0.2052
   7764  H2         7.6450  -17.1980   13.8220 H    2589  WAT2589     0.2052
   7765  O          8.6850   -7.9050   13.8460 O.3  2590  WAT2590    -0.4105
   7766  H1         9.1030   -7.0610   13.6740 H    2590  WAT2590     0.2052
   7767  H2         7.7660   -7.7670   13.6170 H    2590  WAT2590     0.2052
   7768  O         11.0210  -10.1730   15.2300 O.3  2591  WAT2591    -0.4105
   7769  H1        11.1410  -10.7690   15.9690 H    2591  WAT2591     0.2052
   7770  H2        11.8800  -10.1360   14.8100 H    2591  WAT2591     0.2052
   7771  O         13.3600   -9.6190   13.8060 O.3  2592  WAT2592    -0.4105
   7772  H1        12.8330   -9.0950   13.2030 H    2592  WAT2592     0.2052
   7773  H2        13.7030   -8.9870   14.4370 H    2592  WAT2592     0.2052
   7774  O          5.7590  -12.2300    0.2510 O.3  2593  WAT2593    -0.4105
   7775  H1         5.5570  -13.0930    0.6120 H    2593  WAT2593     0.2052
   7776  H2         5.5880  -12.3170   -0.6870 H    2593  WAT2593     0.2052
   7777  O          6.5350   -1.5990   14.9620 O.3  2594  WAT2594    -0.4105
   7778  H1         5.9980   -0.8750   14.6430 H    2594  WAT2594     0.2052
   7779  H2         6.7890   -2.0760   14.1710 H    2594  WAT2594     0.2052
   7780  O          7.7880  -13.6310   16.4870 O.3  2595  WAT2595    -0.4105
   7781  H1         8.3780  -13.9390   17.1750 H    2595  WAT2595     0.2052
   7782  H2         6.9700  -14.1030   16.6430 H    2595  WAT2595     0.2052
   7783  O         12.6070  -14.0140   16.7210 O.3  2596  WAT2596    -0.4105
   7784  H1        11.9190  -14.6760   16.6560 H    2596  WAT2596     0.2052
   7785  H2        13.3280  -14.4600   17.1650 H    2596  WAT2596     0.2052
   7786  O         13.2370  -17.4190    2.7800 O.3  2597  WAT2597    -0.4105
   7787  H1        13.5180  -18.2620    3.1360 H    2597  WAT2597     0.2052
   7788  H2        12.4640  -17.1870    3.2940 H    2597  WAT2597     0.2052
   7789  O          4.5570  -15.1300    0.2390 O.3  2598  WAT2598    -0.4105
   7790  H1         4.8590  -15.1230   -0.6690 H    2598  WAT2598     0.2052
   7791  H2         5.2960  -15.4800    0.7360 H    2598  WAT2598     0.2052
   7792  O          9.3920   -0.3640   15.2200 O.3  2599  WAT2599    -0.4105
   7793  H1         9.3180    0.5390   15.5280 H    2599  WAT2599     0.2052
   7794  H2         8.4900   -0.6830   15.1930 H    2599  WAT2599     0.2052
   7795  O          7.7750  -16.1860    1.2240 O.3  2600  WAT2600    -0.4105
   7796  H1         7.4270  -16.8640    0.6450 H    2600  WAT2600     0.2052
   7797  H2         7.9770  -16.6470    2.0390 H    2600  WAT2600     0.2052
   7798  O          9.9400   -1.1980    2.8430 O.3  2601  WAT2601    -0.4105
   7799  H1        10.8350   -0.8600    2.8650 H    2601  WAT2601     0.2052
   7800  H2         9.9720   -1.9200    2.2150 H    2601  WAT2601     0.2052
   7801  O          3.5800   -5.8260    1.0720 O.3  2602  WAT2602    -0.4105
   7802  H1         4.0170   -5.2830    1.7270 H    2602  WAT2602     0.2052
   7803  H2         4.0650   -6.6510    1.0810 H    2602  WAT2602     0.2052
   7804  O          0.7940   -3.0370    8.5240 O.3  2603  WAT2603    -0.4105
   7805  H1         1.1250   -3.9050    8.2920 H    2603  WAT2603     0.2052
   7806  H2         1.2230   -2.8310    9.3540 H    2603  WAT2603     0.2052
   7807  O          5.3910   -4.7060    6.1840 O.3  2604  WAT2604    -0.4105
   7808  H1         5.0900   -4.8290    7.0840 H    2604  WAT2604     0.2052
   7809  H2         5.2840   -5.5650    5.7760 H    2604  WAT2604     0.2052
   7810  O          1.2830   -2.1700   11.2620 O.3  2605  WAT2605    -0.4105
   7811  H1         0.8460   -1.9900   12.0940 H    2605  WAT2605     0.2052
   7812  H2         1.8510   -1.4120   11.1200 H    2605  WAT2605     0.2052
   7813  O         16.9200   -2.6680   15.5500 O.3  2606  WAT2606    -0.4105
   7814  H1        16.3200   -2.6090   14.8060 H    2606  WAT2606     0.2052
   7815  H2        17.0490   -3.6080   15.6790 H    2606  WAT2606     0.2052
   7816  O         18.1600   -4.9260    0.8870 O.3  2607  WAT2607    -0.4105
   7817  H1        17.3290   -4.8590    1.3570 H    2607  WAT2607     0.2052
   7818  H2        18.3370   -4.0360    0.5830 H    2607  WAT2607     0.2052
   7819  O         17.6150   -8.1810    3.3900 O.3  2608  WAT2608    -0.4105
   7820  H1        18.3770   -7.6120    3.4960 H    2608  WAT2608     0.2052
   7821  H2        17.6310   -8.7490    4.1610 H    2608  WAT2608     0.2052
   7822  O          1.1160   -9.6580    7.6210 O.3  2609  WAT2609    -0.4105
   7823  H1         0.4610   -9.9270    6.9770 H    2609  WAT2609     0.2052
   7824  H2         1.9540   -9.7670    7.1710 H    2609  WAT2609     0.2052
   7825  O         18.6210   -7.3260    8.2340 O.3  2610  WAT2610    -0.4105
   7826  H1        18.9920   -8.1100    7.8280 H    2610  WAT2610     0.2052
   7827  H2        19.2620   -6.6380    8.0560 H    2610  WAT2610     0.2052
   7828  O         15.6050   -5.9430   13.6470 O.3  2611  WAT2611    -0.4105
   7829  H1        14.7910   -5.5130   13.9100 H    2611  WAT2611     0.2052
   7830  H2        16.0120   -5.3310   13.0340 H    2611  WAT2611     0.2052
   7831  O         17.6670   -7.8880    0.5470 O.3  2612  WAT2612    -0.4105
   7832  H1        17.9420   -6.9800    0.4190 H    2612  WAT2612     0.2052
   7833  H2        17.4780   -7.9520    1.4830 H    2612  WAT2612     0.2052
   7834  O         14.0650  -14.8640    1.8430 O.3  2613  WAT2613    -0.4105
   7835  H1        14.4830  -15.0500    1.0020 H    2613  WAT2613     0.2052
   7836  H2        13.7580  -15.7160    2.1530 H    2613  WAT2613     0.2052
   7837  O         17.5640   -9.9510    5.5400 O.3  2614  WAT2614    -0.4105
   7838  H1        17.1880  -10.7180    5.1080 H    2614  WAT2614     0.2052
   7839  H2        16.8340   -9.5690    6.0280 H    2614  WAT2614     0.2052
   7840  O          2.1530   -9.2720   12.1610 O.3  2615  WAT2615    -0.4105
   7841  H1         2.5210   -9.3600   13.0410 H    2615  WAT2615     0.2052
   7842  H2         1.5850  -10.0360   12.0620 H    2615  WAT2615     0.2052
   7843  O         16.9540  -10.8040   15.1740 O.3  2616  WAT2616    -0.4105
   7844  H1        16.7220  -11.0330   14.2740 H    2616  WAT2616     0.2052
   7845  H2        17.2140   -9.8840   15.1290 H    2616  WAT2616     0.2052
   7846  O          1.7050  -12.3620   16.0670 O.3  2617  WAT2617    -0.4105
   7847  H1         0.8110  -12.3950   16.4060 H    2617  WAT2617     0.2052
   7848  H2         2.2450  -12.1630   16.8320 H    2617  WAT2617     0.2052
   7849  O         15.3930  -15.5780   17.9520 O.3  2618  WAT2618    -0.4105
   7850  H1        16.2700  -15.5700   18.3360 H    2618  WAT2618     0.2052
   7851  H2        15.4050  -16.3150   17.3410 H    2618  WAT2618     0.2052
   7852  O          0.3300  -12.4480    3.5630 O.3  2619  WAT2619    -0.4105
   7853  H1        -0.5740  -12.1850    3.3890 H    2619  WAT2619     0.2052
   7854  H2         0.8140  -12.1770    2.7830 H    2619  WAT2619     0.2052
   7855  O         16.8390  -11.7250    8.8410 O.3  2620  WAT2620    -0.4105
   7856  H1        17.3630  -12.2190    8.2100 H    2620  WAT2620     0.2052
   7857  H2        17.4250  -11.5900    9.5860 H    2620  WAT2620     0.2052
   7858  O         17.0180  -11.6410   12.3630 O.3  2621  WAT2621    -0.4105
   7859  H1        16.0680  -11.6750   12.4770 H    2621  WAT2621     0.2052
   7860  H2        17.1990  -10.7310   12.1280 H    2621  WAT2621     0.2052
   7861  O          2.8720  -13.3910    1.4730 O.3  2622  WAT2622    -0.4105
   7862  H1         3.5820  -13.8130    0.9880 H    2622  WAT2622     0.2052
   7863  H2         2.1560  -13.3240    0.8410 H    2622  WAT2622     0.2052
   7864  O          2.5200  -17.3370    0.5130 O.3  2623  WAT2623    -0.4105
   7865  H1         3.2430  -16.7960    0.8310 H    2623  WAT2623     0.2052
   7866  H2         2.7920  -17.6110   -0.3630 H    2623  WAT2623     0.2052
   7867  O         16.3290  -12.4680    4.7800 O.3  2624  WAT2624    -0.4105
   7868  H1        16.8250  -12.7010    5.5650 H    2624  WAT2624     0.2052
   7869  H2        16.1310  -13.3070    4.3640 H    2624  WAT2624     0.2052
   7870  O          2.2090  -18.0870   10.4150 O.3  2625  WAT2625    -0.4105
   7871  H1         2.8570  -18.6370    9.9750 H    2625  WAT2625     0.2052
   7872  H2         2.6290  -17.8320   11.2370 H    2625  WAT2625     0.2052
   7873  O         17.7580  -13.8320    7.3140 O.3  2626  WAT2626    -0.4105
   7874  H1        17.6480  -13.9860    8.2520 H    2626  WAT2626     0.2052
   7875  H2        18.5180  -14.3600    7.0720 H    2626  WAT2626     0.2052
   7876  O         16.1040  -17.8930   13.7720 O.3  2627  WAT2627    -0.4105
   7877  H1        16.7410  -17.2790   14.1380 H    2627  WAT2627     0.2052
   7878  H2        16.2520  -17.8560   12.8270 H    2627  WAT2627     0.2052
   7879  O         18.6470  -16.0010    0.5550 O.3  2628  WAT2628    -0.4105
   7880  H1        19.5720  -16.1330    0.3460 H    2628  WAT2628     0.2052
   7881  H2        18.6240  -15.9220    1.5080 H    2628  WAT2628     0.2052
   7882  O         18.7210  -15.2300    3.1800 O.3  2629  WAT2629    -0.4105
   7883  H1        17.9260  -15.2960    3.7100 H    2629  WAT2629     0.2052
   7884  H2        18.9250  -14.2950    3.1690 H    2629  WAT2629     0.2052
   7885  O         15.6620   -1.1910    7.1740 O.3  2630  WAT2630    -0.4105
   7886  H1        16.2580   -1.5120    6.4980 H    2630  WAT2630     0.2052
   7887  H2        15.9200   -1.6640    7.9650 H    2630  WAT2630     0.2052
   7888  O          1.9620  -17.9310   13.1580 O.3  2631  WAT2631    -0.4105
   7889  H1         1.6140  -17.4750   13.9240 H    2631  WAT2631     0.2052
   7890  H2         1.6310  -18.8250   13.2400 H    2631  WAT2631     0.2052
   7891  O          3.5690   -4.7590   17.3230 O.3  2632  WAT2632    -0.4105
   7892  H1         3.5260   -5.1300   18.2050 H    2632  WAT2632     0.2052
   7893  H2         3.7000   -3.8210   17.4630 H    2632  WAT2632     0.2052
   7894  O          7.2690   -3.2030   12.9240 O.3  2633  WAT2633    -0.4105
   7895  H1         7.0280   -2.9360   12.0370 H    2633  WAT2633     0.2052
   7896  H2         8.2100   -3.0330   12.9790 H    2633  WAT2633     0.2052
   7897  O          9.4750  -16.7400   16.6800 O.3  2634  WAT2634    -0.4105
   7898  H1         9.4140  -16.1480   17.4290 H    2634  WAT2634     0.2052
   7899  H2        10.4150  -16.8470   16.5350 H    2634  WAT2634     0.2052
   7900  O         12.1120  -17.0830   16.3190 O.3  2635  WAT2635    -0.4105
   7901  H1        12.7260  -16.7650   15.6570 H    2635  WAT2635     0.2052
   7902  H2        12.6570  -17.5680   16.9390 H    2635  WAT2635     0.2052
   7903  O         18.5300   -1.1840   13.7250 O.3  2636  WAT2636    -0.4105
   7904  H1        18.0350   -0.7870   13.0080 H    2636  WAT2636     0.2052
   7905  H2        17.9210   -1.8090   14.1190 H    2636  WAT2636     0.2052
   7906  O          2.6340  -18.4030   16.4330 O.3  2637  WAT2637    -0.4105
   7907  H1         3.1830  -18.5850   15.6700 H    2637  WAT2637     0.2052
   7908  H2         2.7000  -19.1940   16.9690 H    2637  WAT2637     0.2052
   7909  O          3.4070   -1.8130   14.4430 O.3  2638  WAT2638    -0.4105
   7910  H1         2.8130   -1.9440   15.1820 H    2638  WAT2638     0.2052
   7911  H2         3.4000   -2.6490   13.9770 H    2638  WAT2638     0.2052
   7912  O         12.8530  -18.5200   12.6460 O.3  2639  WAT2639    -0.4105
   7913  H1        11.9790  -18.1860   12.4430 H    2639  WAT2639     0.2052
   7914  H2        12.7440  -18.9920   13.4710 H    2639  WAT2639     0.2052
   7915  O         13.7600  -16.3130   14.0300 O.3  2640  WAT2640    -0.4105
   7916  H1        13.4310  -17.1270   13.6500 H    2640  WAT2640     0.2052
   7917  H2        14.7080  -16.3560   13.9070 H    2640  WAT2640     0.2052
   7918  O         16.2140   -0.5410   11.0040 O.3  2641  WAT2641    -0.4105
   7919  H1        15.7540    0.2100   10.6300 H    2641  WAT2641     0.2052
   7920  H2        15.5850   -1.2610   10.9450 H    2641  WAT2641     0.2052
   7921  O          3.0390   -4.4470   13.3940 O.3  2642  WAT2642    -0.4105
   7922  H1         2.3120   -5.0670   13.3260 H    2642  WAT2642     0.2052
   7923  H2         3.1000   -4.0530   12.5240 H    2642  WAT2642     0.2052
   7924  O          6.6430   -2.2330   10.1790 O.3  2643  WAT2643    -0.4105
   7925  H1         7.1600   -2.8440    9.6540 H    2643  WAT2643     0.2052
   7926  H2         7.2930   -1.7300   10.6700 H    2643  WAT2643     0.2052
   7927  O          9.3830   -1.3420   11.0060 O.3  2644  WAT2644    -0.4105
   7928  H1         9.6710   -1.5960   10.1290 H    2644  WAT2644     0.2052
   7929  H2         9.8950   -1.8940   11.5960 H    2644  WAT2644     0.2052
   7930  O         10.6000  -17.6030   11.5850 O.3  2645  WAT2645    -0.4105
   7931  H1         9.8180  -17.1280   11.8650 H    2645  WAT2645     0.2052
   7932  H2        10.3070  -18.5070   11.4770 H    2645  WAT2645     0.2052
   7933  O         15.1530  -16.9000    9.6300 O.3  2646  WAT2646    -0.4105
   7934  H1        15.5930  -16.9560    8.7820 H    2646  WAT2646     0.2052
   7935  H2        14.8830  -15.9850    9.7010 H    2646  WAT2646     0.2052
   7936  O         17.0160  -17.2690    7.6410 O.3  2647  WAT2647    -0.4105
   7937  H1        16.9550  -18.2130    7.4940 H    2647  WAT2647     0.2052
   7938  H2        17.7960  -17.1610    8.1860 H    2647  WAT2647     0.2052
   7939  O          1.3220   -1.1300    6.6030 O.3  2648  WAT2648    -0.4105
   7940  H1         1.1540   -1.7630    7.3020 H    2648  WAT2648     0.2052
   7941  H2         0.4550   -0.9240    6.2530 H    2648  WAT2648     0.2052
   7942  O          1.9440  -17.2980    4.1070 O.3  2649  WAT2649    -0.4105
   7943  H1         2.7020  -17.1850    3.5330 H    2649  WAT2649     0.2052
   7944  H2         1.4820  -16.4610    4.0610 H    2649  WAT2649     0.2052
   7945  O          8.4860  -15.1840    7.0970 O.3  2650  WAT2650    -0.4105
   7946  H1         7.6730  -15.5580    6.7560 H    2650  WAT2650     0.2052
   7947  H2         8.9900  -15.9400    7.3990 H    2650  WAT2650     0.2052
   7948  O         12.9880  -18.5200    8.3350 O.3  2651  WAT2651    -0.4105
   7949  H1        13.5910  -17.9480    8.8100 H    2651  WAT2651     0.2052
   7950  H2        12.2480  -17.9560    8.1130 H    2651  WAT2651     0.2052
   7951  O         16.1320  -18.1180    3.6090 O.3  2652  WAT2652    -0.4105
   7952  H1        16.3270  -17.2190    3.8760 H    2652  WAT2652     0.2052
   7953  H2        15.3450  -18.3490    4.1020 H    2652  WAT2652     0.2052
   7954  O          2.9280   -2.4360    4.0480 O.3  2653  WAT2653    -0.4105
   7955  H1         2.4030   -2.0560    3.3450 H    2653  WAT2653     0.2052
   7956  H2         2.8520   -1.8110    4.7690 H    2653  WAT2653     0.2052
   7957  O          4.3170  -16.7720    2.6470 O.3  2654  WAT2654    -0.4105
   7958  H1         4.8460  -17.5590    2.5180 H    2654  WAT2654     0.2052
   7959  H2         4.9500  -16.0920    2.8800 H    2654  WAT2654     0.2052
   7960  O          6.5110  -17.0340    5.7010 O.3  2655  WAT2655    -0.4105
   7961  H1         5.8810  -17.7350    5.8680 H    2655  WAT2655     0.2052
   7962  H2         5.9710  -16.2740    5.4850 H    2655  WAT2655     0.2052
   7963  O          9.4500   -0.4200   18.3720 O.3  2656  WAT2656    -0.4105
   7964  H1        10.3770   -0.6560   18.4160 H    2656  WAT2656     0.2052
   7965  H2         9.4350    0.4070   17.8910 H    2656  WAT2656     0.2052
   7966  O         17.6840   -0.8780    5.3700 O.3  2657  WAT2657    -0.4105
   7967  H1        17.8600   -1.5640    4.7260 H    2657  WAT2657     0.2052
   7968  H2        16.9870   -0.3530    4.9770 H    2657  WAT2657     0.2052
   7969  O          6.6360  -17.7560   18.1370 O.3  2658  WAT2658    -0.4105
   7970  H1         6.3550  -17.2520   17.3730 H    2658  WAT2658     0.2052
   7971  H2         7.0180  -18.5530   17.7710 H    2658  WAT2658     0.2052
   7972  O          5.5270   -0.4880    2.9230 O.3  2659  WAT2659    -0.4105
   7973  H1         6.2590   -0.7720    2.3760 H    2659  WAT2659     0.2052
   7974  H2         5.7870   -0.7270    3.8130 H    2659  WAT2659     0.2052
   7975  O          4.6890   -4.3720    2.9280 O.3  2660  WAT2660    -0.4105
   7976  H1         4.0600   -3.9030    3.4770 H    2660  WAT2660     0.2052
   7977  H2         4.8030   -5.2170    3.3630 H    2660  WAT2660     0.2052
   7978  O         13.2380  -18.3400   18.7150 O.3  2661  WAT2661    -0.4105
   7979  H1        13.1240  -18.0210   19.6100 H    2661  WAT2661     0.2052
   7980  H2        14.0550  -17.9390   18.4180 H    2661  WAT2661     0.2052
   7981  O         16.0180   -1.1930   18.1960 O.3  2662  WAT2662    -0.4105
   7982  H1        16.8100   -1.6880   17.9890 H    2662  WAT2662     0.2052
   7983  H2        16.3110   -0.5140   18.8040 H    2662  WAT2662     0.2052
   7984  O         12.1440  -10.3210  -10.9220 O.3  2663  WAT2663    -0.4105
   7985  H1        12.0630  -11.2360  -11.1930 H    2663  WAT2663     0.2052
   7986  H2        11.7300   -9.8240  -11.6280 H    2663  WAT2663     0.2052
   7987  O         10.2750   -8.5430   -9.0410 O.3  2664  WAT2664    -0.4105
   7988  H1         9.5000   -9.0230   -8.7510 H    2664  WAT2664     0.2052
   7989  H2        10.9270   -9.2230   -9.2150 H    2664  WAT2664     0.2052
   7990  O          4.2920   -8.2310   -8.1630 O.3  2665  WAT2665    -0.4105
   7991  H1         3.4610   -8.4860   -7.7640 H    2665  WAT2665     0.2052
   7992  H2         4.9000   -8.1600   -7.4280 H    2665  WAT2665     0.2052
   7993  O         14.2960   -4.1370  -10.2610 O.3  2666  WAT2666    -0.4105
   7994  H1        13.8340   -4.9080   -9.9320 H    2666  WAT2666     0.2052
   7995  H2        15.1090   -4.1110   -9.7560 H    2666  WAT2666     0.2052
   7996  O          4.2720   -4.1970   -7.9680 O.3  2667  WAT2667    -0.4105
   7997  H1         4.5750   -5.0870   -8.1470 H    2667  WAT2667     0.2052
   7998  H2         5.0170   -3.6400   -8.1950 H    2667  WAT2667     0.2052
   7999  O          2.7010  -13.2710  -14.3790 O.3  2668  WAT2668    -0.4105
   8000  H1         1.8130  -12.9290  -14.4810 H    2668  WAT2668     0.2052
   8001  H2         2.9850  -13.4710  -15.2710 H    2668  WAT2668     0.2052
   8002  O          0.6650  -10.6700   -8.4950 O.3  2669  WAT2669    -0.4105
   8003  H1         1.2360  -11.4380   -8.4950 H    2669  WAT2669     0.2052
   8004  H2         0.6650  -10.3720   -9.4050 H    2669  WAT2669     0.2052
   8005  O         10.5230   -1.8510  -10.6410 O.3  2670  WAT2670    -0.4105
   8006  H1         9.9040   -1.3960  -11.2110 H    2670  WAT2670     0.2052
   8007  H2        11.3780   -1.6960  -11.0420 H    2670  WAT2670     0.2052
   8008  O          9.7160   -5.8670   -9.0340 O.3  2671  WAT2671    -0.4105
   8009  H1         9.6470   -6.8080   -9.1950 H    2671  WAT2671     0.2052
   8010  H2        10.4780   -5.7770   -8.4620 H    2671  WAT2671     0.2052
   8011  O          1.9070  -15.2620   -6.7080 O.3  2672  WAT2672    -0.4105
   8012  H1         1.7270  -16.1590   -6.4280 H    2672  WAT2672     0.2052
   8013  H2         1.5050  -14.7150   -6.0340 H    2672  WAT2672     0.2052
   8014  O         10.7470  -13.0600   -8.8070 O.3  2673  WAT2673    -0.4105
   8015  H1        11.1230  -13.9330   -8.9200 H    2673  WAT2673     0.2052
   8016  H2        10.6490  -12.7250   -9.6980 H    2673  WAT2673     0.2052
   8017  O          4.8770  -14.6880  -13.3450 O.3  2674  WAT2674    -0.4105
   8018  H1         4.9840  -13.7870  -13.0380 H    2674  WAT2674     0.2052
   8019  H2         3.9670  -14.7360  -13.6360 H    2674  WAT2674     0.2052
   8020  O         14.5290  -15.5650  -11.8740 O.3  2675  WAT2675    -0.4105
   8021  H1        15.3500  -16.0560  -11.8320 H    2675  WAT2675     0.2052
   8022  H2        14.5630  -14.9760  -11.1210 H    2675  WAT2675     0.2052
   8023  O          2.5260  -12.7660   -8.1000 O.3  2676  WAT2676    -0.4105
   8024  H1         3.2070  -12.5020   -7.4810 H    2676  WAT2676     0.2052
   8025  H2         2.2110  -13.6060   -7.7660 H    2676  WAT2676     0.2052
   8026  O          6.7180  -11.7190   -9.0130 O.3  2677  WAT2677    -0.4105
   8027  H1         7.2260  -11.2210   -8.3720 H    2677  WAT2677     0.2052
   8028  H2         7.2500  -12.4960   -9.1890 H    2677  WAT2677     0.2052
   8029  O         18.8190  -13.5490   -5.3100 O.3  2678  WAT2678    -0.4105
   8030  H1        18.1140  -13.1600   -5.8280 H    2678  WAT2678     0.2052
   8031  H2        19.0850  -12.8540   -4.7080 H    2678  WAT2678     0.2052
   8032  O          5.0020  -17.0790   -4.7460 O.3  2679  WAT2679    -0.4105
   8033  H1         5.0040  -16.5620   -5.5520 H    2679  WAT2679     0.2052
   8034  H2         4.1720  -17.5560   -4.7690 H    2679  WAT2679     0.2052
   8035  O         11.3890   -6.9670  -13.2470 O.3  2680  WAT2680    -0.4105
   8036  H1        10.7710   -6.5020  -13.8110 H    2680  WAT2680     0.2052
   8037  H2        11.9010   -6.2750  -12.8310 H    2680  WAT2680     0.2052
   8038  O          6.2520   -7.4400   -6.5690 O.3  2681  WAT2681    -0.4105
   8039  H1         5.9190   -6.8130   -5.9270 H    2681  WAT2681     0.2052
   8040  H2         6.4290   -6.9140   -7.3490 H    2681  WAT2681     0.2052
   8041  O         14.7650  -13.6250   -9.1010 O.3  2682  WAT2682    -0.4105
   8042  H1        14.0610  -13.3370   -8.5210 H    2682  WAT2682     0.2052
   8043  H2        15.1270  -12.8150   -9.4620 H    2682  WAT2682     0.2052
   8044  O          4.6830  -15.3680   -6.7390 O.3  2683  WAT2683    -0.4105
   8045  H1         5.0250  -14.5240   -7.0340 H    2683  WAT2683     0.2052
   8046  H2         3.7450  -15.2200   -6.6230 H    2683  WAT2683     0.2052
   8047  O          5.4640   -5.4720   -4.7540 O.3  2684  WAT2684    -0.4105
   8048  H1         6.0810   -4.7970   -5.0360 H    2684  WAT2684     0.2052
   8049  H2         4.6030   -5.0630   -4.8450 H    2684  WAT2684     0.2052
   8050  O          0.7570   -6.2820  -15.8740 O.3  2685  WAT2685    -0.4105
   8051  H1         0.3800   -5.7930  -16.6050 H    2685  WAT2685     0.2052
   8052  H2         1.0150   -5.6090  -15.2430 H    2685  WAT2685     0.2052
   8053  O         16.3820   -4.0080   -6.8390 O.3  2686  WAT2686    -0.4105
   8054  H1        15.6980   -3.3380   -6.8470 H    2686  WAT2686     0.2052
   8055  H2        16.9210   -3.8100   -7.6040 H    2686  WAT2686     0.2052
   8056  O         17.8340  -14.1800   -8.7110 O.3  2687  WAT2687    -0.4105
   8057  H1        16.8870  -14.1460   -8.5790 H    2687  WAT2687     0.2052
   8058  H2        18.1590  -13.3660   -8.3260 H    2687  WAT2687     0.2052
   8059  O          8.3660  -17.8800  -10.4150 O.3  2688  WAT2688    -0.4105
   8060  H1         8.6740  -18.4350  -11.1310 H    2688  WAT2688     0.2052
   8061  H2         7.4360  -17.7460  -10.5980 H    2688  WAT2688     0.2052
   8062  O         13.9180   -2.1630   -8.1240 O.3  2689  WAT2689    -0.4105
   8063  H1        13.9300   -2.5670   -8.9920 H    2689  WAT2689     0.2052
   8064  H2        13.3650   -1.3890   -8.2280 H    2689  WAT2689     0.2052
   8065  O         15.2120   -5.4420  -13.0350 O.3  2690  WAT2690    -0.4105
   8066  H1        15.1020   -6.3840  -12.9100 H    2690  WAT2690     0.2052
   8067  H2        15.2090   -5.0800  -12.1490 H    2690  WAT2690     0.2052
   8068  O         13.3160   -7.2600   -6.7960 O.3  2691  WAT2691    -0.4105
   8069  H1        13.7330   -7.4740   -7.6310 H    2691  WAT2691     0.2052
   8070  H2        14.0400   -7.0030   -6.2250 H    2691  WAT2691     0.2052
   8071  O         10.7540   -9.8150  -13.6790 O.3  2692  WAT2692    -0.4105
   8072  H1         9.8270   -9.8810  -13.4500 H    2692  WAT2692     0.2052
   8073  H2        10.9070   -8.8770  -13.7930 H    2692  WAT2692     0.2052
   8074  O         10.7410  -13.5440  -16.6820 O.3  2693  WAT2693    -0.4105
   8075  H1         9.8010  -13.3820  -16.5970 H    2693  WAT2693     0.2052
   8076  H2        11.0590  -12.8250  -17.2290 H    2693  WAT2693     0.2052
   8077  O         17.2620   -8.8620   -6.7040 O.3  2694  WAT2694    -0.4105
   8078  H1        16.4340   -8.7920   -7.1790 H    2694  WAT2694     0.2052
   8079  H2        17.8570   -8.2760   -7.1730 H    2694  WAT2694     0.2052
   8080  O         14.7840   -8.2530  -13.1750 O.3  2695  WAT2695    -0.4105
   8081  H1        14.1650   -8.5910  -13.8230 H    2695  WAT2695     0.2052
   8082  H2        14.7660   -8.8970  -12.4670 H    2695  WAT2695     0.2052
   8083  O         14.2270  -12.0750   -5.7590 O.3  2696  WAT2696    -0.4105
   8084  H1        13.8140  -11.2490   -5.5050 H    2696  WAT2696     0.2052
   8085  H2        13.4940  -12.6600   -5.9510 H    2696  WAT2696     0.2052
   8086  O          6.3600   -9.2890  -10.8970 O.3  2697  WAT2697    -0.4105
   8087  H1         5.9560  -10.0010  -11.3920 H    2697  WAT2697     0.2052
   8088  H2         6.4460   -9.6330  -10.0080 H    2697  WAT2697     0.2052
   8089  O          6.8280   -5.6020   -8.7330 O.3  2698  WAT2698    -0.4105
   8090  H1         6.5310   -6.2070   -9.4120 H    2698  WAT2698     0.2052
   8091  H2         7.7780   -5.5640   -8.8440 H    2698  WAT2698     0.2052
   8092  O          5.0730  -12.5140   -7.1170 O.3  2699  WAT2699    -0.4105
   8093  H1         5.6240  -12.4050   -7.8920 H    2699  WAT2699     0.2052
   8094  H2         5.5870  -12.1410   -6.4020 H    2699  WAT2699     0.2052
   8095  O         14.9170   -2.0290   -5.0710 O.3  2700  WAT2700    -0.4105
   8096  H1        14.4400   -1.2220   -5.2630 H    2700  WAT2700     0.2052
   8097  H2        14.2330   -2.6810   -4.9180 H    2700  WAT2700     0.2052
   8098  O          5.9200   -5.8640   -2.0820 O.3  2701  WAT2701    -0.4105
   8099  H1         5.0230   -5.6400   -1.8350 H    2701  WAT2701     0.2052
   8100  H2         5.9450   -5.7400   -3.0310 H    2701  WAT2701     0.2052
   8101  O         12.9600   -9.0150  -16.1680 O.3  2702  WAT2702    -0.4105
   8102  H1        13.4000   -9.8520  -16.3140 H    2702  WAT2702     0.2052
   8103  H2        13.6730   -8.3820  -16.0820 H    2702  WAT2702     0.2052
   8104  O          4.7470   -8.9920   -3.5070 O.3  2703  WAT2703    -0.4105
   8105  H1         4.6080   -8.1200   -3.1380 H    2703  WAT2703     0.2052
   8106  H2         3.8650   -9.3350   -3.6520 H    2703  WAT2703     0.2052
   8107  O         11.0700   -4.0750  -12.2000 O.3  2704  WAT2704    -0.4105
   8108  H1        11.5100   -3.3320  -12.6140 H    2704  WAT2704     0.2052
   8109  H2        11.0090   -3.8320  -11.2760 H    2704  WAT2704     0.2052
   8110  O          6.5450   -3.0500   -1.2980 O.3  2705  WAT2705    -0.4105
   8111  H1         6.5170   -2.6460   -2.1650 H    2705  WAT2705     0.2052
   8112  H2         6.3820   -3.9790   -1.4610 H    2705  WAT2705     0.2052
   8113  O         16.5420  -17.7600  -17.8540 O.3  2706  WAT2706    -0.4105
   8114  H1        16.2290  -17.6680  -16.9540 H    2706  WAT2706     0.2052
   8115  H2        17.3030  -17.1820  -17.9040 H    2706  WAT2706     0.2052
   8116  O          3.0600  -10.3940  -13.3960 O.3  2707  WAT2707    -0.4105
   8117  H1         2.9400   -9.6680  -14.0080 H    2707  WAT2707     0.2052
   8118  H2         2.7500  -11.1640  -13.8740 H    2707  WAT2707     0.2052
   8119  O         18.4970   -2.2680   -0.0020 O.3  2708  WAT2708    -0.4105
   8120  H1        18.9720   -1.7890    0.6770 H    2708  WAT2708     0.2052
   8121  H2        19.1170   -2.3360   -0.7270 H    2708  WAT2708     0.2052
   8122  O          0.6990   -7.2230   -7.5890 O.3  2709  WAT2709    -0.4105
   8123  H1         0.7770   -7.0880   -8.5340 H    2709  WAT2709     0.2052
   8124  H2         1.3130   -7.9310   -7.3970 H    2709  WAT2709     0.2052
   8125  O          1.9440   -5.5230  -11.1790 O.3  2710  WAT2710    -0.4105
   8126  H1         1.5360   -5.3810  -12.0330 H    2710  WAT2710     0.2052
   8127  H2         2.8350   -5.8070  -11.3820 H    2710  WAT2710     0.2052
   8128  O         17.9000   -5.0760   -2.8420 O.3  2711  WAT2711    -0.4105
   8129  H1        18.0260   -5.3150   -3.7600 H    2711  WAT2711     0.2052
   8130  H2        17.9420   -5.9080   -2.3690 H    2711  WAT2711     0.2052
   8131  O         11.7620   -1.3740   -4.2720 O.3  2712  WAT2712    -0.4105
   8132  H1        12.2760   -1.4630   -3.4700 H    2712  WAT2712     0.2052
   8133  H2        10.9180   -1.0280   -3.9790 H    2712  WAT2712     0.2052
   8134  O         13.7370   -1.0880  -14.8440 O.3  2713  WAT2713    -0.4105
   8135  H1        13.5770   -1.3780  -13.9460 H    2713  WAT2713     0.2052
   8136  H2        13.5720   -1.8640  -15.3790 H    2713  WAT2713     0.2052
   8137  O          6.2160   -1.3080  -13.0670 O.3  2714  WAT2714    -0.4105
   8138  H1         6.0400   -2.2250  -13.2800 H    2714  WAT2714     0.2052
   8139  H2         5.3610   -0.9490  -12.8270 H    2714  WAT2714     0.2052
   8140  O         13.4400   -3.5790  -16.2840 O.3  2715  WAT2715    -0.4105
   8141  H1        12.7460   -3.5820  -16.9440 H    2715  WAT2715     0.2052
   8142  H2        14.1820   -4.0030  -16.7140 H    2715  WAT2715     0.2052
   8143  O         13.0050   -1.9530  -12.2090 O.3  2716  WAT2716    -0.4105
   8144  H1        13.4600   -2.7340  -11.8950 H    2716  WAT2716     0.2052
   8145  H2        13.3440   -1.2420  -11.6650 H    2716  WAT2716     0.2052
   8146  O         17.7520  -13.0230   -1.8770 O.3  2717  WAT2717    -0.4105
   8147  H1        17.1370  -12.5150   -2.4050 H    2717  WAT2717     0.2052
   8148  H2        17.4320  -13.9230   -1.9340 H    2717  WAT2717     0.2052
   8149  O          0.7550   -6.1810   -5.0500 O.3  2718  WAT2718    -0.4105
   8150  H1         0.9180   -6.6510   -5.8680 H    2718  WAT2718     0.2052
   8151  H2         1.2200   -6.6890   -4.3850 H    2718  WAT2718     0.2052
   8152  O          5.5270  -17.0510  -10.0140 O.3  2719  WAT2719    -0.4105
   8153  H1         5.0830  -16.2700  -10.3450 H    2719  WAT2719     0.2052
   8154  H2         6.0850  -16.7280   -9.3070 H    2719  WAT2719     0.2052
   8155  O          9.8140  -14.1840   -4.4100 O.3  2720  WAT2720    -0.4105
   8156  H1         9.3520  -13.9760   -3.5980 H    2720  WAT2720     0.2052
   8157  H2         9.4110  -14.9980   -4.7130 H    2720  WAT2720     0.2052
   8158  O         14.8140  -12.9630   -3.2810 O.3  2721  WAT2721    -0.4105
   8159  H1        13.9630  -13.2620   -2.9600 H    2721  WAT2721     0.2052
   8160  H2        14.6540  -12.7190   -4.1920 H    2721  WAT2721     0.2052
   8161  O         11.9090  -11.4630   -1.1810 O.3  2722  WAT2722    -0.4105
   8162  H1        12.2340  -12.2960   -1.5210 H    2722  WAT2722     0.2052
   8163  H2        12.6970  -10.9400   -1.0330 H    2722  WAT2722     0.2052
   8164  O          8.6430  -17.4300  -15.1330 O.3  2723  WAT2723    -0.4105
   8165  H1         8.0180  -17.4340  -14.4080 H    2723  WAT2723     0.2052
   8166  H2         8.5560  -18.2970  -15.5300 H    2723  WAT2723     0.2052
   8167  O          7.5640  -16.5060   -8.1550 O.3  2724  WAT2724    -0.4105
   8168  H1         7.8620  -15.6000   -8.2360 H    2724  WAT2724     0.2052
   8169  H2         8.1130  -16.9940   -8.7690 H    2724  WAT2724     0.2052
   8170  O          5.3180  -11.9270  -12.2860 O.3  2725  WAT2725    -0.4105
   8171  H1         5.0920  -12.1440  -11.3810 H    2725  WAT2725     0.2052
   8172  H2         4.5370  -11.4950  -12.6310 H    2725  WAT2725     0.2052
   8173  O         12.5480  -11.9210  -13.6870 O.3  2726  WAT2726    -0.4105
   8174  H1        11.9490  -11.1970  -13.8700 H    2726  WAT2726     0.2052
   8175  H2        13.0960  -11.9830  -14.4690 H    2726  WAT2726     0.2052
   8176  O          7.7580  -11.0290   -1.6200 O.3  2727  WAT2727    -0.4105
   8177  H1         7.6620  -11.9690   -1.7700 H    2727  WAT2727     0.2052
   8178  H2         8.6010  -10.8070   -2.0150 H    2727  WAT2727     0.2052
   8179  O         11.1540  -13.2850  -11.6560 O.3  2728  WAT2728    -0.4105
   8180  H1        11.5470  -12.9670  -12.4700 H    2728  WAT2728     0.2052
   8181  H2        11.5160  -14.1640  -11.5420 H    2728  WAT2728     0.2052
   8182  O          2.8890  -14.6170   -3.4660 O.3  2729  WAT2729    -0.4105
   8183  H1         2.4950  -13.7700   -3.2590 H    2729  WAT2729     0.2052
   8184  H2         2.2010  -15.2550   -3.2760 H    2729  WAT2729     0.2052
   8185  O          9.4640  -14.5340   -0.3970 O.3  2730  WAT2730    -0.4105
   8186  H1         8.7730  -14.7270    0.2380 H    2730  WAT2730     0.2052
   8187  H2        10.2070  -14.2510    0.1360 H    2730  WAT2730     0.2052
   8188  O          0.1910  -16.6950   -9.4330 O.3  2731  WAT2731    -0.4105
   8189  H1        -0.0980  -16.1240   -8.7210 H    2731  WAT2731     0.2052
   8190  H2         0.9350  -17.1740   -9.0700 H    2731  WAT2731     0.2052
   8191  O          0.3780  -12.7530  -18.2230 O.3  2732  WAT2732    -0.4105
   8192  H1         0.2950  -11.8100  -18.0820 H    2732  WAT2732     0.2052
   8193  H2         0.0260  -12.8950  -19.1020 H    2732  WAT2732     0.2052
   8194  O         11.7400  -10.6940   -7.5610 O.3  2733  WAT2733    -0.4105
   8195  H1        11.0080  -10.1850   -7.2120 H    2733  WAT2733     0.2052
   8196  H2        11.3420  -11.5110   -7.8620 H    2733  WAT2733     0.2052
   8197  O          8.1780  -14.0190   -9.1560 O.3  2734  WAT2734    -0.4105
   8198  H1         8.1810  -14.4600  -10.0060 H    2734  WAT2734     0.2052
   8199  H2         9.0730  -13.6970   -9.0490 H    2734  WAT2734     0.2052
   8200  O          4.0280  -14.1360  -10.1970 O.3  2735  WAT2735    -0.4105
   8201  H1         3.6880  -13.6590   -9.4400 H    2735  WAT2735     0.2052
   8202  H2         3.2660  -14.5900  -10.5570 H    2735  WAT2735     0.2052
   8203  O          8.2400  -13.0170  -16.1650 O.3  2736  WAT2736    -0.4105
   8204  H1         8.3610  -13.0590  -15.2170 H    2736  WAT2736     0.2052
   8205  H2         7.8540  -12.1550  -16.3210 H    2736  WAT2736     0.2052
   8206  O         12.2020  -15.2410   -8.1490 O.3  2737  WAT2737    -0.4105
   8207  H1        12.2200  -14.7900   -7.3050 H    2737  WAT2737     0.2052
   8208  H2        11.9540  -16.1400   -7.9360 H    2737  WAT2737     0.2052
   8209  O          7.2520  -10.7070  -16.7670 O.3  2738  WAT2738    -0.4105
   8210  H1         6.6830  -11.1560  -17.3930 H    2738  WAT2738     0.2052
   8211  H2         7.9610  -10.3480  -17.3010 H    2738  WAT2738     0.2052
   8212  O         15.6300  -17.8280   -2.3100 O.3  2739  WAT2739    -0.4105
   8213  H1        15.9540  -18.5590   -1.7850 H    2739  WAT2739     0.2052
   8214  H2        15.6650  -18.1460   -3.2120 H    2739  WAT2739     0.2052
   8215  O          2.3290   -6.8060   -2.8900 O.3  2740  WAT2740    -0.4105
   8216  H1         1.9440   -7.4470   -2.2920 H    2740  WAT2740     0.2052
   8217  H2         2.6400   -6.1030   -2.3210 H    2740  WAT2740     0.2052
   8218  O          8.4780   -9.9590   -7.4100 O.3  2741  WAT2741    -0.4105
   8219  H1         8.8450  -10.4330   -6.6630 H    2741  WAT2741     0.2052
   8220  H2         8.2890   -9.0840   -7.0690 H    2741  WAT2741     0.2052
   8221  O          1.3420  -15.2140  -11.2800 O.3  2742  WAT2742    -0.4105
   8222  H1         1.0570  -15.5790  -10.4420 H    2742  WAT2742     0.2052
   8223  H2         1.2800  -15.9460  -11.8940 H    2742  WAT2742     0.2052
   8224  O          6.2680  -10.9180   -5.0910 O.3  2743  WAT2743    -0.4105
   8225  H1         5.9640  -10.0380   -4.8660 H    2743  WAT2743     0.2052
   8226  H2         7.2230  -10.8580   -5.0550 H    2743  WAT2743     0.2052
   8227  O          4.7970   -6.7120  -14.4940 O.3  2744  WAT2744    -0.4105
   8228  H1         4.0230   -7.2520  -14.6550 H    2744  WAT2744     0.2052
   8229  H2         5.5260   -7.2310  -14.8330 H    2744  WAT2744     0.2052
   8230  O         15.5550   -7.7150   -8.7020 O.3  2745  WAT2745    -0.4105
   8231  H1        16.2750   -7.2190   -9.0920 H    2745  WAT2745     0.2052
   8232  H2        15.3540   -8.3930   -9.3460 H    2745  WAT2745     0.2052
   8233  O         11.0160  -16.3210  -14.5590 O.3  2746  WAT2746    -0.4105
   8234  H1        10.2030  -16.8200  -14.6340 H    2746  WAT2746     0.2052
   8235  H2        10.8230  -15.4810  -14.9750 H    2746  WAT2746     0.2052
   8236  O         10.9370   -7.6440   -2.8150 O.3  2747  WAT2747    -0.4105
   8237  H1        10.8710   -8.5650   -3.0690 H    2747  WAT2747     0.2052
   8238  H2        10.3080   -7.5470   -2.1000 H    2747  WAT2747     0.2052
   8239  O         13.7310  -11.9490  -16.2630 O.3  2748  WAT2748    -0.4105
   8240  H1        14.6190  -11.6380  -16.4380 H    2748  WAT2748     0.2052
   8241  H2        13.7020  -12.8220  -16.6550 H    2748  WAT2748     0.2052
   8242  O          4.8400   -7.0440  -10.8570 O.3  2749  WAT2749    -0.4105
   8243  H1         5.3580   -7.8470  -10.9110 H    2749  WAT2749     0.2052
   8244  H2         4.3890   -7.1060  -10.0150 H    2749  WAT2749     0.2052
   8245  O          9.7270   -5.7770  -15.5840 O.3  2750  WAT2750    -0.4105
   8246  H1        10.0690   -5.0330  -16.0790 H    2750  WAT2750     0.2052
   8247  H2         8.8980   -5.4640  -15.2210 H    2750  WAT2750     0.2052
   8248  O          2.3250  -10.0770   -3.9440 O.3  2751  WAT2751    -0.4105
   8249  H1         1.9660   -9.4120   -3.3570 H    2751  WAT2751     0.2052
   8250  H2         2.0300  -10.9090   -3.5730 H    2751  WAT2751     0.2052
   8251  O          5.5260   -9.6190   -1.0600 O.3  2752  WAT2752    -0.4105
   8252  H1         5.2260   -9.4730   -1.9570 H    2752  WAT2752     0.2052
   8253  H2         6.2970  -10.1780   -1.1530 H    2752  WAT2752     0.2052
   8254  O         10.8690   -4.8220   -3.0650 O.3  2753  WAT2753    -0.4105
   8255  H1        10.8830   -5.7540   -3.2830 H    2753  WAT2753     0.2052
   8256  H2        10.1610   -4.7360   -2.4260 H    2753  WAT2753     0.2052
   8257  O         16.0030  -10.6380  -16.7950 O.3  2754  WAT2754    -0.4105
   8258  H1        15.9190  -10.2070  -17.6450 H    2754  WAT2754     0.2052
   8259  H2        16.7220  -10.1780  -16.3620 H    2754  WAT2754     0.2052
   8260  O         17.0800   -8.1810   -3.7180 O.3  2755  WAT2755    -0.4105
   8261  H1        16.3550   -7.5880   -3.9150 H    2755  WAT2755     0.2052
   8262  H2        17.6080   -8.1890   -4.5160 H    2755  WAT2755     0.2052
   8263  O         17.0310   -3.7840  -14.0660 O.3  2756  WAT2756    -0.4105
   8264  H1        16.3890   -4.4380  -13.7920 H    2756  WAT2756     0.2052
   8265  H2        16.6440   -3.3780  -14.8420 H    2756  WAT2756     0.2052
   8266  O         12.6100   -6.4550  -10.2190 O.3  2757  WAT2757    -0.4105
   8267  H1        12.9620   -7.0530  -10.8790 H    2757  WAT2757     0.2052
   8268  H2        11.7260   -6.7810  -10.0480 H    2757  WAT2757     0.2052
   8269  O          8.6960   -5.6960  -12.8120 O.3  2758  WAT2758    -0.4105
   8270  H1         9.3830   -5.1490  -12.4310 H    2758  WAT2758     0.2052
   8271  H2         7.9100   -5.1510  -12.7770 H    2758  WAT2758     0.2052
   8272  O          0.8360  -10.0780  -17.3210 O.3  2759  WAT2759    -0.4105
   8273  H1         1.7050   -9.7960  -17.0370 H    2759  WAT2759     0.2052
   8274  H2         0.3450   -9.2650  -17.4360 H    2759  WAT2759     0.2052
   8275  O          7.9990   -8.6910  -13.2000 O.3  2760  WAT2760    -0.4105
   8276  H1         8.4550   -7.8800  -12.9740 H    2760  WAT2760     0.2052
   8277  H2         7.6480   -9.0090  -12.3680 H    2760  WAT2760     0.2052
   8278  O         10.3020   -3.1800   -5.9700 O.3  2761  WAT2761    -0.4105
   8279  H1        10.9460   -2.9740   -5.2930 H    2761  WAT2761     0.2052
   8280  H2        10.6650   -3.9410   -6.4230 H    2761  WAT2761     0.2052
   8281  O          3.9000  -18.3470  -12.7270 O.3  2762  WAT2762    -0.4105
   8282  H1         3.7720  -18.3550  -11.7790 H    2762  WAT2762     0.2052
   8283  H2         3.0760  -18.0090  -13.0780 H    2762  WAT2762     0.2052
   8284  O         11.5750   -5.1770   -7.2530 O.3  2763  WAT2763    -0.4105
   8285  H1        12.2180   -5.8780   -7.1400 H    2763  WAT2763     0.2052
   8286  H2        12.1000   -4.3970   -7.4330 H    2763  WAT2763     0.2052
   8287  O         15.4210   -4.8920  -17.5290 O.3  2764  WAT2764    -0.4105
   8288  H1        15.1950   -5.6090  -16.9360 H    2764  WAT2764     0.2052
   8289  H2        15.0310   -5.1410  -18.3670 H    2764  WAT2764     0.2052
   8290  O         13.3490   -4.3780   -4.0490 O.3  2765  WAT2765    -0.4105
   8291  H1        13.6850   -3.7910   -3.3710 H    2765  WAT2765     0.2052
   8292  H2        12.4290   -4.5080   -3.8190 H    2765  WAT2765     0.2052
   8293  O          1.2030   -0.8660  -16.7540 O.3  2766  WAT2766    -0.4105
   8294  H1         1.5620   -0.2670  -17.4090 H    2766  WAT2766     0.2052
   8295  H2         1.0620   -0.3200  -15.9810 H    2766  WAT2766     0.2052
   8296  O          0.9000  -16.5880   -3.2670 O.3  2767  WAT2767    -0.4105
   8297  H1         0.1850  -16.3880   -2.6620 H    2767  WAT2767     0.2052
   8298  H2         1.3190  -17.3640   -2.8950 H    2767  WAT2767     0.2052
   8299  O         15.0030   -6.9750  -15.8670 O.3  2768  WAT2768    -0.4105
   8300  H1        14.7150   -6.5140  -15.0800 H    2768  WAT2768     0.2052
   8301  H2        15.7980   -7.4350  -15.5990 H    2768  WAT2768     0.2052
   8302  O          1.1870   -2.6000   -2.2800 O.3  2769  WAT2769    -0.4105
   8303  H1         1.2960   -3.5410   -2.4210 H    2769  WAT2769     0.2052
   8304  H2         0.5350   -2.3350   -2.9290 H    2769  WAT2769     0.2052
   8305  O          9.1780   -4.3280   -0.8800 O.3  2770  WAT2770    -0.4105
   8306  H1         8.8580   -5.0480   -0.3360 H    2770  WAT2770     0.2052
   8307  H2         8.5040   -3.6530   -0.8070 H    2770  WAT2770     0.2052
   8308  O          7.2200   -3.4820  -15.9370 O.3  2771  WAT2771    -0.4105
   8309  H1         7.2110   -2.7490  -16.5530 H    2771  WAT2771     0.2052
   8310  H2         6.2990   -3.7290  -15.8440 H    2771  WAT2771     0.2052
   8311  O          2.8200   -8.2610  -15.1920 O.3  2772  WAT2772    -0.4105
   8312  H1         2.2130   -7.5210  -15.1830 H    2772  WAT2772     0.2052
   8313  H2         3.2950   -8.1710  -16.0190 H    2772  WAT2772     0.2052
   8314  O         12.3930  -14.0960   -5.5170 O.3  2773  WAT2773    -0.4105
   8315  H1        12.7620  -14.9160   -5.1890 H    2773  WAT2773     0.2052
   8316  H2        11.5330  -14.0360   -5.1010 H    2773  WAT2773     0.2052
   8317  O         15.7600  -15.1400  -14.7080 O.3  2774  WAT2774    -0.4105
   8318  H1        15.1310  -15.0360  -15.4220 H    2774  WAT2774     0.2052
   8319  H2        15.2650  -14.9200  -13.9180 H    2774  WAT2774     0.2052
   8320  O         10.2050   -3.4200  -17.2740 O.3  2775  WAT2775    -0.4105
   8321  H1        10.3070   -3.6230  -18.2040 H    2775  WAT2775     0.2052
   8322  H2         9.3060   -3.6740  -17.0700 H    2775  WAT2775     0.2052
   8323  O          7.7280  -12.8620  -13.2920 O.3  2776  WAT2776    -0.4105
   8324  H1         7.0200  -12.3930  -12.8510 H    2776  WAT2776     0.2052
   8325  H2         8.0130  -13.5190  -12.6580 H    2776  WAT2776     0.2052
   8326  O          9.3540  -11.4420   -5.2930 O.3  2777  WAT2777    -0.4105
   8327  H1         9.8520  -10.9670   -4.6280 H    2777  WAT2777     0.2052
   8328  H2         9.4960  -12.3660   -5.0860 H    2777  WAT2777     0.2052
   8329  O         11.7600  -16.1360  -11.8530 O.3  2778  WAT2778    -0.4105
   8330  H1        11.6360  -16.1180  -12.8020 H    2778  WAT2778     0.2052
   8331  H2        12.7080  -16.0890  -11.7330 H    2778  WAT2778     0.2052
   8332  O          8.8470   -0.9010  -12.5800 O.3  2779  WAT2779    -0.4105
   8333  H1         9.1010   -0.9390  -13.5020 H    2779  WAT2779     0.2052
   8334  H2         7.8990   -1.0280  -12.5870 H    2779  WAT2779     0.2052
   8335  O          5.9320  -14.5530  -15.9170 O.3  2780  WAT2780    -0.4105
   8336  H1         6.7810  -14.1160  -15.9830 H    2780  WAT2780     0.2052
   8337  H2         5.5650  -14.2410  -15.0900 H    2780  WAT2780     0.2052
   8338  O         16.5600  -15.2250   -4.4500 O.3  2781  WAT2781    -0.4105
   8339  H1        16.0580  -14.4850   -4.1110 H    2781  WAT2781     0.2052
   8340  H2        17.3760  -14.8370   -4.7660 H    2781  WAT2781     0.2052
   8341  O         14.8530   -9.9820  -11.0040 O.3  2782  WAT2782    -0.4105
   8342  H1        13.9120   -9.9670  -10.8290 H    2782  WAT2782     0.2052
   8343  H2        15.1670  -10.7680  -10.5580 H    2782  WAT2782     0.2052
   8344  O          4.8310   -8.3000  -17.4430 O.3  2783  WAT2783    -0.4105
   8345  H1         5.5970   -8.4120  -16.8810 H    2783  WAT2783     0.2052
   8346  H2         4.9080   -8.9960  -18.0960 H    2783  WAT2783     0.2052
   8347  O          3.5250  -10.8670  -16.7600 O.3  2784  WAT2784    -0.4105
   8348  H1         3.6060  -11.8150  -16.6480 H    2784  WAT2784     0.2052
   8349  H2         4.4170  -10.5370  -16.6540 H    2784  WAT2784     0.2052
   8350  O         16.8550   -2.8110   -9.3280 O.3  2785  WAT2785    -0.4105
   8351  H1        16.9800   -1.9880   -8.8560 H    2785  WAT2785     0.2052
   8352  H2        17.7220   -3.0220   -9.6760 H    2785  WAT2785     0.2052
   8353  O          4.3270   -0.7180   -9.6570 O.3  2786  WAT2786    -0.4105
   8354  H1         5.0630   -1.2660   -9.3860 H    2786  WAT2786     0.2052
   8355  H2         4.7110    0.1480   -9.7960 H    2786  WAT2786     0.2052
   8356  O          1.2110   -4.6500  -13.7830 O.3  2787  WAT2787    -0.4105
   8357  H1         0.2850   -4.4080  -13.7920 H    2787  WAT2787     0.2052
   8358  H2         1.6770   -3.8230  -13.9040 H    2787  WAT2787     0.2052
   8359  O          3.3330   -1.5330   -0.4680 O.3  2788  WAT2788    -0.4105
   8360  H1         4.1340   -1.2120   -0.0550 H    2788  WAT2788     0.2052
   8361  H2         2.8180   -1.8940    0.2540 H    2788  WAT2788     0.2052
   8362  O          7.4370   -1.5450  -17.8340 O.3  2789  WAT2789    -0.4105
   8363  H1         8.2300   -1.2560  -18.2860 H    2789  WAT2789     0.2052
   8364  H2         6.9180   -1.9760  -18.5130 H    2789  WAT2789     0.2052
   8365  O         12.1690   -5.4250   -0.5210 O.3  2790  WAT2790    -0.4105
   8366  H1        11.5630   -5.4020   -1.2610 H    2790  WAT2790     0.2052
   8367  H2        11.8650   -6.1570    0.0160 H    2790  WAT2790     0.2052
   8368  O         13.5990   -1.6970   -1.9100 O.3  2791  WAT2791    -0.4105
   8369  H1        14.5510   -1.7810   -1.9600 H    2791  WAT2791     0.2052
   8370  H2        13.4520   -1.0330   -1.2360 H    2791  WAT2791     0.2052
   8371  O         16.4900   -2.3180  -16.4100 O.3  2792  WAT2792    -0.4105
   8372  H1        16.2040   -2.7310  -17.2250 H    2792  WAT2792     0.2052
   8373  H2        16.2920   -1.3890  -16.5300 H    2792  WAT2792     0.2052
   8374  O          1.0520   -9.0460   -1.5250 O.3  2793  WAT2793    -0.4105
   8375  H1         1.5560   -9.6250   -0.9530 H    2793  WAT2793     0.2052
   8376  H2         0.3130   -8.7620   -0.9870 H    2793  WAT2793     0.2052
   8377  O          7.9550   -6.3240  -17.9700 O.3  2794  WAT2794    -0.4105
   8378  H1         7.8500   -6.9390  -17.2440 H    2794  WAT2794     0.2052
   8379  H2         7.7870   -6.8480  -18.7540 H    2794  WAT2794     0.2052
   8380  O          8.1060   -7.6390   -1.9910 O.3  2795  WAT2795    -0.4105
   8381  H1         7.3410   -7.0700   -2.0760 H    2795  WAT2795     0.2052
   8382  H2         8.2880   -7.9310   -2.8840 H    2795  WAT2795     0.2052
   8383  O         11.1950   -7.2620  -17.3660 O.3  2796  WAT2796    -0.4105
   8384  H1        10.6460   -6.8150  -16.7210 H    2796  WAT2796     0.2052
   8385  H2        11.8170   -7.7670  -16.8420 H    2796  WAT2796     0.2052
   8386  O         15.2490   -5.9080   -1.4340 O.3  2797  WAT2797    -0.4105
   8387  H1        15.9900   -5.5710   -1.9370 H    2797  WAT2797     0.2052
   8388  H2        14.4860   -5.7390   -1.9870 H    2797  WAT2797     0.2052
   8389  O          3.0850  -10.9030   -0.6300 O.3  2798  WAT2798    -0.4105
   8390  H1         3.1250  -11.2010    0.2790 H    2798  WAT2798     0.2052
   8391  H2         3.9390  -10.5020   -0.7890 H    2798  WAT2798     0.2052
   8392  O          6.8630   -8.3030  -15.4690 O.3  2799  WAT2799    -0.4105
   8393  H1         7.2840   -8.4690  -14.6260 H    2799  WAT2799     0.2052
   8394  H2         6.9880   -9.1130  -15.9640 H    2799  WAT2799     0.2052
   8395  O          5.0250  -12.3240   -2.6620 O.3  2800  WAT2800    -0.4105
   8396  H1         4.4950  -12.8150   -3.2900 H    2800  WAT2800     0.2052
   8397  H2         5.6940  -11.8950   -3.1960 H    2800  WAT2800     0.2052
   8398  O          9.3750   -9.2800  -18.2210 O.3  2801  WAT2801    -0.4105
   8399  H1         9.8960   -9.9950  -18.5870 H    2801  WAT2801     0.2052
   8400  H2        10.0220   -8.6410  -17.9210 H    2801  WAT2801     0.2052
   8401  O         13.9230   -7.8570   -2.8980 O.3  2802  WAT2802    -0.4105
   8402  H1        14.3370   -7.7020   -2.0490 H    2802  WAT2802     0.2052
   8403  H2        12.9880   -7.7310   -2.7350 H    2802  WAT2802     0.2052
   8404  O         14.3950  -10.5170   -0.8940 O.3  2803  WAT2803    -0.4105
   8405  H1        14.9770  -11.2720   -0.9820 H    2803  WAT2803     0.2052
   8406  H2        14.5720   -9.9860   -1.6710 H    2803  WAT2803     0.2052
   8407  O          5.5130  -15.3570   -2.5820 O.3  2804  WAT2804    -0.4105
   8408  H1         5.4180  -15.9750   -3.3070 H    2804  WAT2804     0.2052
   8409  H2         4.9320  -14.6310   -2.8090 H    2804  WAT2804     0.2052
   8410  O          8.2790  -16.8000   -5.5500 O.3  2805  WAT2805    -0.4105
   8411  H1         7.8300  -16.7780   -6.3950 H    2805  WAT2805     0.2052
   8412  H2         7.6450  -17.1980   -4.9530 H    2805  WAT2805     0.2052
   8413  O          8.6850   -7.9050   -4.9280 O.3  2806  WAT2806    -0.4105
   8414  H1         9.1030   -7.0610   -5.1010 H    2806  WAT2806     0.2052
   8415  H2         7.7660   -7.7670   -5.1580 H    2806  WAT2806     0.2052
   8416  O         11.0210  -10.1730   -3.5450 O.3  2807  WAT2807    -0.4105
   8417  H1        11.1410  -10.7690   -2.8050 H    2807  WAT2807     0.2052
   8418  H2        11.8800  -10.1360   -3.9640 H    2807  WAT2807     0.2052
   8419  O         13.3600   -9.6190   -4.9680 O.3  2808  WAT2808    -0.4105
   8420  H1        12.8330   -9.0950   -5.5720 H    2808  WAT2808     0.2052
   8421  H2        13.7030   -8.9870   -4.3370 H    2808  WAT2808     0.2052
   8422  O          5.7590  -12.2300  -18.5230 O.3  2809  WAT2809    -0.4105
   8423  H1         5.5570  -13.0930  -18.1620 H    2809  WAT2809     0.2052
   8424  H2         5.5880  -12.3170  -19.4610 H    2809  WAT2809     0.2052
   8425  O          6.5350   -1.5990   -3.8130 O.3  2810  WAT2810    -0.4105
   8426  H1         5.9980   -0.8750   -4.1320 H    2810  WAT2810     0.2052
   8427  H2         6.7890   -2.0760   -4.6030 H    2810  WAT2810     0.2052
   8428  O          7.7880  -13.6310   -2.2870 O.3  2811  WAT2811    -0.4105
   8429  H1         8.3780  -13.9390   -1.5990 H    2811  WAT2811     0.2052
   8430  H2         6.9700  -14.1030   -2.1310 H    2811  WAT2811     0.2052
   8431  O         12.6070  -14.0140   -2.0540 O.3  2812  WAT2812    -0.4105
   8432  H1        11.9190  -14.6760   -2.1190 H    2812  WAT2812     0.2052
   8433  H2        13.3280  -14.4600   -1.6090 H    2812  WAT2812     0.2052
   8434  O         13.2370  -17.4190  -15.9950 O.3  2813  WAT2813    -0.4105
   8435  H1        13.5180  -18.2620  -15.6390 H    2813  WAT2813     0.2052
   8436  H2        12.4640  -17.1870  -15.4810 H    2813  WAT2813     0.2052
   8437  O          4.5570  -15.1300  -18.5360 O.3  2814  WAT2814    -0.4105
   8438  H1         4.8590  -15.1230  -19.4440 H    2814  WAT2814     0.2052
   8439  H2         5.2960  -15.4800  -18.0390 H    2814  WAT2814     0.2052
   8440  O          9.3920   -0.3640   -3.5540 O.3  2815  WAT2815    -0.4105
   8441  H1         9.3180    0.5390   -3.2470 H    2815  WAT2815     0.2052
   8442  H2         8.4900   -0.6830   -3.5820 H    2815  WAT2815     0.2052
   8443  O          7.7750  -16.1860  -17.5500 O.3  2816  WAT2816    -0.4105
   8444  H1         7.4270  -16.8640  -18.1300 H    2816  WAT2816     0.2052
   8445  H2         7.9770  -16.6470  -16.7360 H    2816  WAT2816     0.2052
   8446  O          9.9400   -1.1980  -15.9310 O.3  2817  WAT2817    -0.4105
   8447  H1        10.8350   -0.8600  -15.9090 H    2817  WAT2817     0.2052
   8448  H2         9.9720   -1.9200  -16.5590 H    2817  WAT2817     0.2052
   8449  O          3.5800   -5.8260  -17.7030 O.3  2818  WAT2818    -0.4105
   8450  H1         4.0170   -5.2830  -17.0470 H    2818  WAT2818     0.2052
   8451  H2         4.0650   -6.6510  -17.6930 H    2818  WAT2818     0.2052
   8452  O          0.7940   -3.0370  -10.2510 O.3  2819  WAT2819    -0.4105
   8453  H1         1.1250   -3.9050  -10.4830 H    2819  WAT2819     0.2052
   8454  H2         1.2230   -2.8310   -9.4200 H    2819  WAT2819     0.2052
   8455  O          5.3910   -4.7060  -12.5900 O.3  2820  WAT2820    -0.4105
   8456  H1         5.0900   -4.8290  -11.6900 H    2820  WAT2820     0.2052
   8457  H2         5.2840   -5.5650  -12.9990 H    2820  WAT2820     0.2052
   8458  O          1.2830   -2.1700   -7.5120 O.3  2821  WAT2821    -0.4105
   8459  H1         0.8460   -1.9900   -6.6800 H    2821  WAT2821     0.2052
   8460  H2         1.8510   -1.4120   -7.6540 H    2821  WAT2821     0.2052
   8461  O         16.9200   -2.6680   -3.2250 O.3  2822  WAT2822    -0.4105
   8462  H1        16.3200   -2.6090   -3.9680 H    2822  WAT2822     0.2052
   8463  H2        17.0490   -3.6080   -3.0950 H    2822  WAT2822     0.2052
   8464  O         18.1600   -4.9260  -17.8880 O.3  2823  WAT2823    -0.4105
   8465  H1        17.3290   -4.8590  -17.4170 H    2823  WAT2823     0.2052
   8466  H2        18.3370   -4.0360  -18.1910 H    2823  WAT2823     0.2052
   8467  O         17.6150   -8.1810  -15.3840 O.3  2824  WAT2824    -0.4105
   8468  H1        18.3770   -7.6120  -15.2780 H    2824  WAT2824     0.2052
   8469  H2        17.6310   -8.7490  -14.6130 H    2824  WAT2824     0.2052
   8470  O          1.1160   -9.6580  -11.1540 O.3  2825  WAT2825    -0.4105
   8471  H1         0.4610   -9.9270  -11.7980 H    2825  WAT2825     0.2052
   8472  H2         1.9540   -9.7670  -11.6030 H    2825  WAT2825     0.2052
   8473  O         18.6210   -7.3260  -10.5400 O.3  2826  WAT2826    -0.4105
   8474  H1        18.9920   -8.1100  -10.9470 H    2826  WAT2826     0.2052
   8475  H2        19.2620   -6.6380  -10.7180 H    2826  WAT2826     0.2052
   8476  O         15.6050   -5.9430   -5.1270 O.3  2827  WAT2827    -0.4105
   8477  H1        14.7910   -5.5130   -4.8650 H    2827  WAT2827     0.2052
   8478  H2        16.0120   -5.3310   -5.7400 H    2827  WAT2827     0.2052
   8479  O         17.6670   -7.8880  -18.2270 O.3  2828  WAT2828    -0.4105
   8480  H1        17.9420   -6.9800  -18.3550 H    2828  WAT2828     0.2052
   8481  H2        17.4780   -7.9520  -17.2910 H    2828  WAT2828     0.2052
   8482  O         14.0650  -14.8640  -16.9320 O.3  2829  WAT2829    -0.4105
   8483  H1        14.4830  -15.0500  -17.7720 H    2829  WAT2829     0.2052
   8484  H2        13.7580  -15.7160  -16.6210 H    2829  WAT2829     0.2052
   8485  O         17.5640   -9.9510  -13.2340 O.3  2830  WAT2830    -0.4105
   8486  H1        17.1880  -10.7180  -13.6660 H    2830  WAT2830     0.2052
   8487  H2        16.8340   -9.5690  -12.7470 H    2830  WAT2830     0.2052
   8488  O          2.1530   -9.2720   -6.6130 O.3  2831  WAT2831    -0.4105
   8489  H1         2.5210   -9.3600   -5.7340 H    2831  WAT2831     0.2052
   8490  H2         1.5850  -10.0360   -6.7130 H    2831  WAT2831     0.2052
   8491  O         16.9540  -10.8040   -3.6000 O.3  2832  WAT2832    -0.4105
   8492  H1        16.7220  -11.0330   -4.5000 H    2832  WAT2832     0.2052
   8493  H2        17.2140   -9.8840   -3.6460 H    2832  WAT2832     0.2052
   8494  O          1.7050  -12.3620   -2.7070 O.3  2833  WAT2833    -0.4105
   8495  H1         0.8110  -12.3950   -2.3680 H    2833  WAT2833     0.2052
   8496  H2         2.2450  -12.1630   -1.9420 H    2833  WAT2833     0.2052
   8497  O         15.3930  -15.5780   -0.8220 O.3  2834  WAT2834    -0.4105
   8498  H1        16.2700  -15.5700   -0.4390 H    2834  WAT2834     0.2052
   8499  H2        15.4050  -16.3150   -1.4330 H    2834  WAT2834     0.2052
   8500  O          0.3300  -12.4480  -15.2110 O.3  2835  WAT2835    -0.4105
   8501  H1        -0.5740  -12.1850  -15.3860 H    2835  WAT2835     0.2052
   8502  H2         0.8140  -12.1770  -15.9910 H    2835  WAT2835     0.2052
   8503  O         16.8390  -11.7250   -9.9330 O.3  2836  WAT2836    -0.4105
   8504  H1        17.3630  -12.2190  -10.5640 H    2836  WAT2836     0.2052
   8505  H2        17.4250  -11.5900   -9.1890 H    2836  WAT2836     0.2052
   8506  O         17.0180  -11.6410   -6.4110 O.3  2837  WAT2837    -0.4105
   8507  H1        16.0680  -11.6750   -6.2970 H    2837  WAT2837     0.2052
   8508  H2        17.1990  -10.7310   -6.6460 H    2837  WAT2837     0.2052
   8509  O          2.8720  -13.3910  -17.3020 O.3  2838  WAT2838    -0.4105
   8510  H1         3.5820  -13.8130  -17.7870 H    2838  WAT2838     0.2052
   8511  H2         2.1560  -13.3240  -17.9330 H    2838  WAT2838     0.2052
   8512  O          2.5200  -17.3370  -18.2610 O.3  2839  WAT2839    -0.4105
   8513  H1         3.2430  -16.7960  -17.9430 H    2839  WAT2839     0.2052
   8514  H2         2.7920  -17.6110  -19.1370 H    2839  WAT2839     0.2052
   8515  O         16.3290  -12.4680  -13.9940 O.3  2840  WAT2840    -0.4105
   8516  H1        16.8250  -12.7010  -13.2090 H    2840  WAT2840     0.2052
   8517  H2        16.1310  -13.3070  -14.4100 H    2840  WAT2840     0.2052
   8518  O          2.2090  -18.0870   -8.3590 O.3  2841  WAT2841    -0.4105
   8519  H1         2.8570  -18.6370   -8.8000 H    2841  WAT2841     0.2052
   8520  H2         2.6290  -17.8320   -7.5370 H    2841  WAT2841     0.2052
   8521  O         17.7580  -13.8320  -11.4600 O.3  2842  WAT2842    -0.4105
   8522  H1        17.6480  -13.9860  -10.5220 H    2842  WAT2842     0.2052
   8523  H2        18.5180  -14.3600  -11.7030 H    2842  WAT2842     0.2052
   8524  O         16.1040  -17.8930   -5.0020 O.3  2843  WAT2843    -0.4105
   8525  H1        16.7410  -17.2790   -4.6360 H    2843  WAT2843     0.2052
   8526  H2        16.2520  -17.8560   -5.9470 H    2843  WAT2843     0.2052
   8527  O         18.6470  -16.0010  -18.2200 O.3  2844  WAT2844    -0.4105
   8528  H1        19.5720  -16.1330  -18.4280 H    2844  WAT2844     0.2052
   8529  H2        18.6240  -15.9220  -17.2660 H    2844  WAT2844     0.2052
   8530  O         18.7210  -15.2300  -15.5940 O.3  2845  WAT2845    -0.4105
   8531  H1        17.9260  -15.2960  -15.0650 H    2845  WAT2845     0.2052
   8532  H2        18.9250  -14.2950  -15.6060 H    2845  WAT2845     0.2052
   8533  O         15.6620   -1.1910  -11.6000 O.3  2846  WAT2846    -0.4105
   8534  H1        16.2580   -1.5120  -12.2770 H    2846  WAT2846     0.2052
   8535  H2        15.9200   -1.6640  -10.8090 H    2846  WAT2846     0.2052
   8536  O          1.9620  -17.9310   -5.6170 O.3  2847  WAT2847    -0.4105
   8537  H1         1.6140  -17.4750   -4.8510 H    2847  WAT2847     0.2052
   8538  H2         1.6310  -18.8250   -5.5340 H    2847  WAT2847     0.2052
   8539  O          3.5690   -4.7590   -1.4510 O.3  2848  WAT2848    -0.4105
   8540  H1         3.5260   -5.1300   -0.5700 H    2848  WAT2848     0.2052
   8541  H2         3.7000   -3.8210   -1.3110 H    2848  WAT2848     0.2052
   8542  O          7.2690   -3.2030   -5.8500 O.3  2849  WAT2849    -0.4105
   8543  H1         7.0280   -2.9360   -6.7370 H    2849  WAT2849     0.2052
   8544  H2         8.2100   -3.0330   -5.7950 H    2849  WAT2849     0.2052
   8545  O          9.4750  -16.7400   -2.0950 O.3  2850  WAT2850    -0.4105
   8546  H1         9.4140  -16.1480   -1.3450 H    2850  WAT2850     0.2052
   8547  H2        10.4150  -16.8470   -2.2400 H    2850  WAT2850     0.2052
   8548  O         12.1120  -17.0830   -2.4550 O.3  2851  WAT2851    -0.4105
   8549  H1        12.7260  -16.7650   -3.1170 H    2851  WAT2851     0.2052
   8550  H2        12.6570  -17.5680   -1.8360 H    2851  WAT2851     0.2052
   8551  O         18.5300   -1.1840   -5.0490 O.3  2852  WAT2852    -0.4105
   8552  H1        18.0350   -0.7870   -5.7660 H    2852  WAT2852     0.2052
   8553  H2        17.9210   -1.8090   -4.6550 H    2852  WAT2852     0.2052
   8554  O          2.6340  -18.4030   -2.3410 O.3  2853  WAT2853    -0.4105
   8555  H1         3.1830  -18.5850   -3.1050 H    2853  WAT2853     0.2052
   8556  H2         2.7000  -19.1940   -1.8060 H    2853  WAT2853     0.2052
   8557  O          3.4070   -1.8130   -4.3310 O.3  2854  WAT2854    -0.4105
   8558  H1         2.8130   -1.9440   -3.5920 H    2854  WAT2854     0.2052
   8559  H2         3.4000   -2.6490   -4.7970 H    2854  WAT2854     0.2052
   8560  O         12.8530  -18.5200   -6.1280 O.3  2855  WAT2855    -0.4105
   8561  H1        11.9790  -18.1860   -6.3310 H    2855  WAT2855     0.2052
   8562  H2        12.7440  -18.9920   -5.3030 H    2855  WAT2855     0.2052
   8563  O         13.7600  -16.3130   -4.7440 O.3  2856  WAT2856    -0.4105
   8564  H1        13.4310  -17.1270   -5.1240 H    2856  WAT2856     0.2052
   8565  H2        14.7080  -16.3560   -4.8680 H    2856  WAT2856     0.2052
   8566  O         16.2140   -0.5410   -7.7700 O.3  2857  WAT2857    -0.4105
   8567  H1        15.7540    0.2100   -8.1450 H    2857  WAT2857     0.2052
   8568  H2        15.5850   -1.2610   -7.8290 H    2857  WAT2857     0.2052
   8569  O          3.0390   -4.4470   -5.3810 O.3  2858  WAT2858    -0.4105
   8570  H1         2.3120   -5.0670   -5.4480 H    2858  WAT2858     0.2052
   8571  H2         3.1000   -4.0530   -6.2510 H    2858  WAT2858     0.2052
   8572  O          6.6430   -2.2330   -8.5960 O.3  2859  WAT2859    -0.4105
   8573  H1         7.1600   -2.8440   -9.1210 H    2859  WAT2859     0.2052
   8574  H2         7.2930   -1.7300   -8.1050 H    2859  WAT2859     0.2052
   8575  O          9.3830   -1.3420   -7.7690 O.3  2860  WAT2860    -0.4105
   8576  H1         9.6710   -1.5960   -8.6450 H    2860  WAT2860     0.2052
   8577  H2         9.8950   -1.8940   -7.1780 H    2860  WAT2860     0.2052
   8578  O         10.6000  -17.6030   -7.1890 O.3  2861  WAT2861    -0.4105
   8579  H1         9.8180  -17.1280   -6.9090 H    2861  WAT2861     0.2052
   8580  H2        10.3070  -18.5070   -7.2980 H    2861  WAT2861     0.2052
   8581  O         15.1530  -16.9000   -9.1440 O.3  2862  WAT2862    -0.4105
   8582  H1        15.5930  -16.9560   -9.9920 H    2862  WAT2862     0.2052
   8583  H2        14.8830  -15.9850   -9.0730 H    2862  WAT2862     0.2052
   8584  O         17.0160  -17.2690  -11.1330 O.3  2863  WAT2863    -0.4105
   8585  H1        16.9550  -18.2130  -11.2800 H    2863  WAT2863     0.2052
   8586  H2        17.7960  -17.1610  -10.5880 H    2863  WAT2863     0.2052
   8587  O          1.3220   -1.1300  -12.1710 O.3  2864  WAT2864    -0.4105
   8588  H1         1.1540   -1.7630  -11.4730 H    2864  WAT2864     0.2052
   8589  H2         0.4550   -0.9240  -12.5220 H    2864  WAT2864     0.2052
   8590  O          1.9440  -17.2980  -14.6680 O.3  2865  WAT2865    -0.4105
   8591  H1         2.7020  -17.1850  -15.2410 H    2865  WAT2865     0.2052
   8592  H2         1.4820  -16.4610  -14.7130 H    2865  WAT2865     0.2052
   8593  O          8.4860  -15.1840  -11.6780 O.3  2866  WAT2866    -0.4105
   8594  H1         7.6730  -15.5580  -12.0180 H    2866  WAT2866     0.2052
   8595  H2         8.9900  -15.9400  -11.3750 H    2866  WAT2866     0.2052
   8596  O         12.9880  -18.5200  -10.4390 O.3  2867  WAT2867    -0.4105
   8597  H1        13.5910  -17.9480   -9.9640 H    2867  WAT2867     0.2052
   8598  H2        12.2480  -17.9560  -10.6620 H    2867  WAT2867     0.2052
   8599  O         16.1320  -18.1180  -15.1650 O.3  2868  WAT2868    -0.4105
   8600  H1        16.3270  -17.2190  -14.8980 H    2868  WAT2868     0.2052
   8601  H2        15.3450  -18.3490  -14.6720 H    2868  WAT2868     0.2052
   8602  O          2.9280   -2.4360  -14.7260 O.3  2869  WAT2869    -0.4105
   8603  H1         2.4030   -2.0560  -15.4300 H    2869  WAT2869     0.2052
   8604  H2         2.8520   -1.8110  -14.0050 H    2869  WAT2869     0.2052
   8605  O          4.3170  -16.7720  -16.1280 O.3  2870  WAT2870    -0.4105
   8606  H1         4.8460  -17.5590  -16.2570 H    2870  WAT2870     0.2052
   8607  H2         4.9500  -16.0920  -15.8940 H    2870  WAT2870     0.2052
   8608  O          6.5110  -17.0340  -13.0730 O.3  2871  WAT2871    -0.4105
   8609  H1         5.8810  -17.7350  -12.9060 H    2871  WAT2871     0.2052
   8610  H2         5.9710  -16.2740  -13.2900 H    2871  WAT2871     0.2052
   8611  O          9.4500   -0.4200   -0.4020 O.3  2872  WAT2872    -0.4105
   8612  H1        10.3770   -0.6560   -0.3580 H    2872  WAT2872     0.2052
   8613  H2         9.4350    0.4070   -0.8830 H    2872  WAT2872     0.2052
   8614  O         17.6840   -0.8780  -13.4050 O.3  2873  WAT2873    -0.4105
   8615  H1        17.8600   -1.5640  -14.0480 H    2873  WAT2873     0.2052
   8616  H2        16.9870   -0.3530  -13.7970 H    2873  WAT2873     0.2052
   8617  O          6.6360  -17.7560   -0.6380 O.3  2874  WAT2874    -0.4105
   8618  H1         6.3550  -17.2520   -1.4020 H    2874  WAT2874     0.2052
   8619  H2         7.0180  -18.5530   -1.0040 H    2874  WAT2874     0.2052
   8620  O          5.5270   -0.4880  -15.8510 O.3  2875  WAT2875    -0.4105
   8621  H1         6.2590   -0.7720  -16.3990 H    2875  WAT2875     0.2052
   8622  H2         5.7870   -0.7270  -14.9610 H    2875  WAT2875     0.2052
   8623  O          4.6890   -4.3720  -15.8460 O.3  2876  WAT2876    -0.4105
   8624  H1         4.0600   -3.9030  -15.2980 H    2876  WAT2876     0.2052
   8625  H2         4.8030   -5.2170  -15.4120 H    2876  WAT2876     0.2052
   8626  O         13.2380  -18.3400   -0.0600 O.3  2877  WAT2877    -0.4105
   8627  H1        13.1240  -18.0210    0.8350 H    2877  WAT2877     0.2052
   8628  H2        14.0550  -17.9390   -0.3560 H    2877  WAT2877     0.2052
   8629  O         16.0180   -1.1930   -0.5780 O.3  2878  WAT2878    -0.4105
   8630  H1        16.8100   -1.6880   -0.7850 H    2878  WAT2878     0.2052
   8631  H2        16.3110   -0.5140    0.0300 H    2878  WAT2878     0.2052
   8632  O         10.2750   -8.5430  -27.8150 O.3  2879  WAT2879    -0.4105
   8633  H1         9.5000   -9.0230  -27.5250 H    2879  WAT2879     0.2052
   8634  H2        10.9270   -9.2230  -27.9900 H    2879  WAT2879     0.2052
   8635  O          4.2920   -8.2310  -26.9380 O.3  2880  WAT2880    -0.4105
   8636  H1         3.4610   -8.4860  -26.5380 H    2880  WAT2880     0.2052
   8637  H2         4.9000   -8.1600  -26.2020 H    2880  WAT2880     0.2052
   8638  O         14.2960   -4.1370  -29.0350 O.3  2881  WAT2881    -0.4105
   8639  H1        13.8340   -4.9080  -28.7070 H    2881  WAT2881     0.2052
   8640  H2        15.1090   -4.1110  -28.5300 H    2881  WAT2881     0.2052
   8641  O          4.2720   -4.1970  -26.7420 O.3  2882  WAT2882    -0.4105
   8642  H1         4.5750   -5.0870  -26.9210 H    2882  WAT2882     0.2052
   8643  H2         5.0170   -3.6400  -26.9700 H    2882  WAT2882     0.2052
   8644  O          0.6650  -10.6700  -27.2700 O.3  2883  WAT2883    -0.4105
   8645  H1         1.2360  -11.4380  -27.2690 H    2883  WAT2883     0.2052
   8646  H2         0.6650  -10.3720  -28.1790 H    2883  WAT2883     0.2052
   8647  O          9.7160   -5.8670  -27.8080 O.3  2884  WAT2884    -0.4105
   8648  H1         9.6470   -6.8080  -27.9690 H    2884  WAT2884     0.2052
   8649  H2        10.4780   -5.7770  -27.2360 H    2884  WAT2884     0.2052
   8650  O          1.9070  -15.2620  -25.4830 O.3  2885  WAT2885    -0.4105
   8651  H1         1.7270  -16.1590  -25.2020 H    2885  WAT2885     0.2052
   8652  H2         1.5050  -14.7150  -24.8080 H    2885  WAT2885     0.2052
   8653  O         10.7470  -13.0600  -27.5810 O.3  2886  WAT2886    -0.4105
   8654  H1        11.1230  -13.9330  -27.6940 H    2886  WAT2886     0.2052
   8655  H2        10.6490  -12.7250  -28.4720 H    2886  WAT2886     0.2052
   8656  O          2.5260  -12.7660  -26.8740 O.3  2887  WAT2887    -0.4105
   8657  H1         3.2070  -12.5020  -26.2560 H    2887  WAT2887     0.2052
   8658  H2         2.2110  -13.6060  -26.5410 H    2887  WAT2887     0.2052
   8659  O          6.7180  -11.7190  -27.7870 O.3  2888  WAT2888    -0.4105
   8660  H1         7.2260  -11.2210  -27.1470 H    2888  WAT2888     0.2052
   8661  H2         7.2500  -12.4960  -27.9630 H    2888  WAT2888     0.2052
   8662  O         18.8190  -13.5490  -24.0840 O.3  2889  WAT2889    -0.4105
   8663  H1        18.1140  -13.1600  -24.6030 H    2889  WAT2889     0.2052
   8664  H2        19.0850  -12.8540  -23.4820 H    2889  WAT2889     0.2052
   8665  O          5.0020  -17.0790  -23.5210 O.3  2890  WAT2890    -0.4105
   8666  H1         5.0040  -16.5620  -24.3260 H    2890  WAT2890     0.2052
   8667  H2         4.1720  -17.5560  -23.5440 H    2890  WAT2890     0.2052
   8668  O          6.2520   -7.4400  -25.3430 O.3  2891  WAT2891    -0.4105
   8669  H1         5.9190   -6.8130  -24.7010 H    2891  WAT2891     0.2052
   8670  H2         6.4290   -6.9140  -26.1230 H    2891  WAT2891     0.2052
   8671  O         14.7650  -13.6250  -27.8760 O.3  2892  WAT2892    -0.4105
   8672  H1        14.0610  -13.3370  -27.2960 H    2892  WAT2892     0.2052
   8673  H2        15.1270  -12.8150  -28.2360 H    2892  WAT2892     0.2052
   8674  O          4.6830  -15.3680  -25.5140 O.3  2893  WAT2893    -0.4105
   8675  H1         5.0250  -14.5240  -25.8080 H    2893  WAT2893     0.2052
   8676  H2         3.7450  -15.2200  -25.3970 H    2893  WAT2893     0.2052
   8677  O          5.4640   -5.4720  -23.5290 O.3  2894  WAT2894    -0.4105
   8678  H1         6.0810   -4.7970  -23.8100 H    2894  WAT2894     0.2052
   8679  H2         4.6030   -5.0630  -23.6200 H    2894  WAT2894     0.2052
   8680  O         16.3820   -4.0080  -25.6130 O.3  2895  WAT2895    -0.4105
   8681  H1        15.6980   -3.3380  -25.6210 H    2895  WAT2895     0.2052
   8682  H2        16.9210   -3.8100  -26.3790 H    2895  WAT2895     0.2052
   8683  O         17.8340  -14.1800  -27.4850 O.3  2896  WAT2896    -0.4105
   8684  H1        16.8870  -14.1460  -27.3530 H    2896  WAT2896     0.2052
   8685  H2        18.1590  -13.3660  -27.1000 H    2896  WAT2896     0.2052
   8686  O          8.3660  -17.8800  -29.1890 O.3  2897  WAT2897    -0.4105
   8687  H1         8.6740  -18.4350  -29.9060 H    2897  WAT2897     0.2052
   8688  H2         7.4360  -17.7460  -29.3720 H    2897  WAT2897     0.2052
   8689  O         13.9180   -2.1630  -26.8990 O.3  2898  WAT2898    -0.4105
   8690  H1        13.9300   -2.5670  -27.7660 H    2898  WAT2898     0.2052
   8691  H2        13.3650   -1.3890  -27.0020 H    2898  WAT2898     0.2052
   8692  O         13.3160   -7.2600  -25.5700 O.3  2899  WAT2899    -0.4105
   8693  H1        13.7330   -7.4740  -26.4050 H    2899  WAT2899     0.2052
   8694  H2        14.0400   -7.0030  -24.9990 H    2899  WAT2899     0.2052
   8695  O         17.2620   -8.8620  -25.4790 O.3  2900  WAT2900    -0.4105
   8696  H1        16.4340   -8.7920  -25.9540 H    2900  WAT2900     0.2052
   8697  H2        17.8570   -8.2760  -25.9470 H    2900  WAT2900     0.2052
   8698  O         14.2270  -12.0750  -24.5330 O.3  2901  WAT2901    -0.4105
   8699  H1        13.8140  -11.2490  -24.2790 H    2901  WAT2901     0.2052
   8700  H2        13.4940  -12.6600  -24.7260 H    2901  WAT2901     0.2052
   8701  O          6.8280   -5.6020  -27.5070 O.3  2902  WAT2902    -0.4105
   8702  H1         6.5310   -6.2070  -28.1870 H    2902  WAT2902     0.2052
   8703  H2         7.7780   -5.5640  -27.6180 H    2902  WAT2902     0.2052
   8704  O          5.0730  -12.5140  -25.8910 O.3  2903  WAT2903    -0.4105
   8705  H1         5.6240  -12.4050  -26.6660 H    2903  WAT2903     0.2052
   8706  H2         5.5870  -12.1410  -25.1760 H    2903  WAT2903     0.2052
   8707  O         14.9170   -2.0290  -23.8450 O.3  2904  WAT2904    -0.4105
   8708  H1        14.4400   -1.2220  -24.0380 H    2904  WAT2904     0.2052
   8709  H2        14.2330   -2.6810  -23.6920 H    2904  WAT2904     0.2052
   8710  O          5.9200   -5.8640  -20.8570 O.3  2905  WAT2905    -0.4105
   8711  H1         5.0230   -5.6400  -20.6090 H    2905  WAT2905     0.2052
   8712  H2         5.9450   -5.7400  -21.8050 H    2905  WAT2905     0.2052
   8713  O          4.7470   -8.9920  -22.2810 O.3  2906  WAT2906    -0.4105
   8714  H1         4.6080   -8.1200  -21.9120 H    2906  WAT2906     0.2052
   8715  H2         3.8650   -9.3350  -22.4260 H    2906  WAT2906     0.2052
   8716  O          6.5450   -3.0500  -20.0720 O.3  2907  WAT2907    -0.4105
   8717  H1         6.5170   -2.6460  -20.9400 H    2907  WAT2907     0.2052
   8718  H2         6.3820   -3.9790  -20.2350 H    2907  WAT2907     0.2052
   8719  O         18.4970   -2.2680  -18.7760 O.3  2908  WAT2908    -0.4105
   8720  H1        18.9720   -1.7890  -18.0970 H    2908  WAT2908     0.2052
   8721  H2        19.1170   -2.3360  -19.5010 H    2908  WAT2908     0.2052
   8722  O          0.6990   -7.2230  -26.3640 O.3  2909  WAT2909    -0.4105
   8723  H1         0.7770   -7.0880  -27.3080 H    2909  WAT2909     0.2052
   8724  H2         1.3130   -7.9310  -26.1710 H    2909  WAT2909     0.2052
   8725  O         17.9000   -5.0760  -21.6160 O.3  2910  WAT2910    -0.4105
   8726  H1        18.0260   -5.3150  -22.5340 H    2910  WAT2910     0.2052
   8727  H2        17.9420   -5.9080  -21.1440 H    2910  WAT2910     0.2052
   8728  O         11.7620   -1.3740  -23.0460 O.3  2911  WAT2911    -0.4105
   8729  H1        12.2760   -1.4630  -22.2440 H    2911  WAT2911     0.2052
   8730  H2        10.9180   -1.0280  -22.7540 H    2911  WAT2911     0.2052
   8731  O         17.7520  -13.0230  -20.6510 O.3  2912  WAT2912    -0.4105
   8732  H1        17.1370  -12.5150  -21.1790 H    2912  WAT2912     0.2052
   8733  H2        17.4320  -13.9230  -20.7080 H    2912  WAT2912     0.2052
   8734  O          0.7550   -6.1810  -23.8240 O.3  2913  WAT2913    -0.4105
   8735  H1         0.9180   -6.6510  -24.6420 H    2913  WAT2913     0.2052
   8736  H2         1.2200   -6.6890  -23.1590 H    2913  WAT2913     0.2052
   8737  O          5.5270  -17.0510  -28.7880 O.3  2914  WAT2914    -0.4105
   8738  H1         5.0830  -16.2700  -29.1200 H    2914  WAT2914     0.2052
   8739  H2         6.0850  -16.7280  -28.0810 H    2914  WAT2914     0.2052
   8740  O          9.8140  -14.1840  -23.1850 O.3  2915  WAT2915    -0.4105
   8741  H1         9.3520  -13.9760  -22.3730 H    2915  WAT2915     0.2052
   8742  H2         9.4110  -14.9980  -23.4880 H    2915  WAT2915     0.2052
   8743  O         14.8140  -12.9630  -22.0550 O.3  2916  WAT2916    -0.4105
   8744  H1        13.9630  -13.2620  -21.7340 H    2916  WAT2916     0.2052
   8745  H2        14.6540  -12.7190  -22.9670 H    2916  WAT2916     0.2052
   8746  O         11.9090  -11.4630  -19.9550 O.3  2917  WAT2917    -0.4105
   8747  H1        12.2340  -12.2960  -20.2950 H    2917  WAT2917     0.2052
   8748  H2        12.6970  -10.9400  -19.8070 H    2917  WAT2917     0.2052
   8749  O          7.5640  -16.5060  -26.9290 O.3  2918  WAT2918    -0.4105
   8750  H1         7.8620  -15.6000  -27.0100 H    2918  WAT2918     0.2052
   8751  H2         8.1130  -16.9940  -27.5430 H    2918  WAT2918     0.2052
   8752  O          7.7580  -11.0290  -20.3940 O.3  2919  WAT2919    -0.4105
   8753  H1         7.6620  -11.9690  -20.5440 H    2919  WAT2919     0.2052
   8754  H2         8.6010  -10.8070  -20.7890 H    2919  WAT2919     0.2052
   8755  O          2.8890  -14.6170  -22.2410 O.3  2920  WAT2920    -0.4105
   8756  H1         2.4950  -13.7700  -22.0330 H    2920  WAT2920     0.2052
   8757  H2         2.2010  -15.2550  -22.0500 H    2920  WAT2920     0.2052
   8758  O          9.4640  -14.5340  -19.1710 O.3  2921  WAT2921    -0.4105
   8759  H1         8.7730  -14.7270  -18.5360 H    2921  WAT2921     0.2052
   8760  H2        10.2070  -14.2510  -18.6390 H    2921  WAT2921     0.2052
   8761  O          0.1910  -16.6950  -28.2080 O.3  2922  WAT2922    -0.4105
   8762  H1        -0.0980  -16.1240  -27.4950 H    2922  WAT2922     0.2052
   8763  H2         0.9350  -17.1740  -27.8450 H    2922  WAT2922     0.2052
   8764  O         11.7400  -10.6940  -26.3360 O.3  2923  WAT2923    -0.4105
   8765  H1        11.0080  -10.1850  -25.9870 H    2923  WAT2923     0.2052
   8766  H2        11.3420  -11.5110  -26.6370 H    2923  WAT2923     0.2052
   8767  O          8.1780  -14.0190  -27.9300 O.3  2924  WAT2924    -0.4105
   8768  H1         8.1810  -14.4600  -28.7800 H    2924  WAT2924     0.2052
   8769  H2         9.0730  -13.6970  -27.8230 H    2924  WAT2924     0.2052
   8770  O          4.0280  -14.1360  -28.9710 O.3  2925  WAT2925    -0.4105
   8771  H1         3.6880  -13.6590  -28.2140 H    2925  WAT2925     0.2052
   8772  H2         3.2660  -14.5900  -29.3310 H    2925  WAT2925     0.2052
   8773  O         12.2020  -15.2410  -26.9230 O.3  2926  WAT2926    -0.4105
   8774  H1        12.2200  -14.7900  -26.0790 H    2926  WAT2926     0.2052
   8775  H2        11.9540  -16.1400  -26.7100 H    2926  WAT2926     0.2052
   8776  O         15.6300  -17.8280  -21.0850 O.3  2927  WAT2927    -0.4105
   8777  H1        15.9540  -18.5590  -20.5590 H    2927  WAT2927     0.2052
   8778  H2        15.6650  -18.1460  -21.9870 H    2927  WAT2927     0.2052
   8779  O          2.3290   -6.8060  -21.6650 O.3  2928  WAT2928    -0.4105
   8780  H1         1.9440   -7.4470  -21.0660 H    2928  WAT2928     0.2052
   8781  H2         2.6400   -6.1030  -21.0950 H    2928  WAT2928     0.2052
   8782  O          8.4780   -9.9590  -26.1840 O.3  2929  WAT2929    -0.4105
   8783  H1         8.8450  -10.4330  -25.4380 H    2929  WAT2929     0.2052
   8784  H2         8.2890   -9.0840  -25.8430 H    2929  WAT2929     0.2052
   8785  O          6.2680  -10.9180  -23.8650 O.3  2930  WAT2930    -0.4105
   8786  H1         5.9640  -10.0380  -23.6400 H    2930  WAT2930     0.2052
   8787  H2         7.2230  -10.8580  -23.8300 H    2930  WAT2930     0.2052
   8788  O         15.5550   -7.7150  -27.4760 O.3  2931  WAT2931    -0.4105
   8789  H1        16.2750   -7.2190  -27.8670 H    2931  WAT2931     0.2052
   8790  H2        15.3540   -8.3930  -28.1210 H    2931  WAT2931     0.2052
   8791  O         10.9370   -7.6440  -21.5890 O.3  2932  WAT2932    -0.4105
   8792  H1        10.8710   -8.5650  -21.8430 H    2932  WAT2932     0.2052
   8793  H2        10.3080   -7.5470  -20.8750 H    2932  WAT2932     0.2052
   8794  O          4.8400   -7.0440  -29.6310 O.3  2933  WAT2933    -0.4105
   8795  H1         5.3580   -7.8470  -29.6850 H    2933  WAT2933     0.2052
   8796  H2         4.3890   -7.1060  -28.7890 H    2933  WAT2933     0.2052
   8797  O          2.3250  -10.0770  -22.7180 O.3  2934  WAT2934    -0.4105
   8798  H1         1.9660   -9.4120  -22.1310 H    2934  WAT2934     0.2052
   8799  H2         2.0300  -10.9090  -22.3470 H    2934  WAT2934     0.2052
   8800  O          5.5260   -9.6190  -19.8340 O.3  2935  WAT2935    -0.4105
   8801  H1         5.2260   -9.4730  -20.7320 H    2935  WAT2935     0.2052
   8802  H2         6.2970  -10.1780  -19.9270 H    2935  WAT2935     0.2052
   8803  O         10.8690   -4.8220  -21.8390 O.3  2936  WAT2936    -0.4105
   8804  H1        10.8830   -5.7540  -22.0570 H    2936  WAT2936     0.2052
   8805  H2        10.1610   -4.7360  -21.2000 H    2936  WAT2936     0.2052
   8806  O         17.0800   -8.1810  -22.4920 O.3  2937  WAT2937    -0.4105
   8807  H1        16.3550   -7.5880  -22.6890 H    2937  WAT2937     0.2052
   8808  H2        17.6080   -8.1890  -23.2910 H    2937  WAT2937     0.2052
   8809  O         12.6100   -6.4550  -28.9940 O.3  2938  WAT2938    -0.4105
   8810  H1        12.9620   -7.0530  -29.6530 H    2938  WAT2938     0.2052
   8811  H2        11.7260   -6.7810  -28.8230 H    2938  WAT2938     0.2052
   8812  O         10.3020   -3.1800  -24.7450 O.3  2939  WAT2939    -0.4105
   8813  H1        10.9460   -2.9740  -24.0670 H    2939  WAT2939     0.2052
   8814  H2        10.6650   -3.9410  -25.1980 H    2939  WAT2939     0.2052
   8815  O         11.5750   -5.1770  -26.0270 O.3  2940  WAT2940    -0.4105
   8816  H1        12.2180   -5.8780  -25.9140 H    2940  WAT2940     0.2052
   8817  H2        12.1000   -4.3970  -26.2070 H    2940  WAT2940     0.2052
   8818  O         13.3490   -4.3780  -22.8230 O.3  2941  WAT2941    -0.4105
   8819  H1        13.6850   -3.7910  -22.1460 H    2941  WAT2941     0.2052
   8820  H2        12.4290   -4.5080  -22.5940 H    2941  WAT2941     0.2052
   8821  O          0.9000  -16.5880  -22.0410 O.3  2942  WAT2942    -0.4105
   8822  H1         0.1850  -16.3880  -21.4360 H    2942  WAT2942     0.2052
   8823  H2         1.3190  -17.3640  -21.6700 H    2942  WAT2942     0.2052
   8824  O          1.1870   -2.6000  -21.0540 O.3  2943  WAT2943    -0.4105
   8825  H1         1.2960   -3.5410  -21.1950 H    2943  WAT2943     0.2052
   8826  H2         0.5350   -2.3350  -21.7030 H    2943  WAT2943     0.2052
   8827  O          9.1780   -4.3280  -19.6550 O.3  2944  WAT2944    -0.4105
   8828  H1         8.8580   -5.0480  -19.1100 H    2944  WAT2944     0.2052
   8829  H2         8.5040   -3.6530  -19.5810 H    2944  WAT2944     0.2052
   8830  O         12.3930  -14.0960  -24.2910 O.3  2945  WAT2945    -0.4105
   8831  H1        12.7620  -14.9160  -23.9630 H    2945  WAT2945     0.2052
   8832  H2        11.5330  -14.0360  -23.8750 H    2945  WAT2945     0.2052
   8833  O          9.3540  -11.4420  -24.0670 O.3  2946  WAT2946    -0.4105
   8834  H1         9.8520  -10.9670  -23.4020 H    2946  WAT2946     0.2052
   8835  H2         9.4960  -12.3660  -23.8600 H    2946  WAT2946     0.2052
   8836  O         16.5600  -15.2250  -23.2240 O.3  2947  WAT2947    -0.4105
   8837  H1        16.0580  -14.4850  -22.8850 H    2947  WAT2947     0.2052
   8838  H2        17.3760  -14.8370  -23.5410 H    2947  WAT2947     0.2052
   8839  O         14.8530   -9.9820  -29.7780 O.3  2948  WAT2948    -0.4105
   8840  H1        13.9120   -9.9670  -29.6030 H    2948  WAT2948     0.2052
   8841  H2        15.1670  -10.7680  -29.3320 H    2948  WAT2948     0.2052
   8842  O         16.8550   -2.8110  -28.1030 O.3  2949  WAT2949    -0.4105
   8843  H1        16.9800   -1.9880  -27.6300 H    2949  WAT2949     0.2052
   8844  H2        17.7220   -3.0220  -28.4500 H    2949  WAT2949     0.2052
   8845  O          4.3270   -0.7180  -28.4310 O.3  2950  WAT2950    -0.4105
   8846  H1         5.0630   -1.2660  -28.1600 H    2950  WAT2950     0.2052
   8847  H2         4.7110    0.1480  -28.5700 H    2950  WAT2950     0.2052
   8848  O          3.3330   -1.5330  -19.2430 O.3  2951  WAT2951    -0.4105
   8849  H1         4.1340   -1.2120  -18.8290 H    2951  WAT2951     0.2052
   8850  H2         2.8180   -1.8940  -18.5210 H    2951  WAT2951     0.2052
   8851  O         12.1690   -5.4250  -19.2950 O.3  2952  WAT2952    -0.4105
   8852  H1        11.5630   -5.4020  -20.0350 H    2952  WAT2952     0.2052
   8853  H2        11.8650   -6.1570  -18.7580 H    2952  WAT2952     0.2052
   8854  O         13.5990   -1.6970  -20.6840 O.3  2953  WAT2953    -0.4105
   8855  H1        14.5510   -1.7810  -20.7340 H    2953  WAT2953     0.2052
   8856  H2        13.4520   -1.0330  -20.0110 H    2953  WAT2953     0.2052
   8857  O          1.0520   -9.0460  -20.2990 O.3  2954  WAT2954    -0.4105
   8858  H1         1.5560   -9.6250  -19.7270 H    2954  WAT2954     0.2052
   8859  H2         0.3130   -8.7620  -19.7610 H    2954  WAT2954     0.2052
   8860  O          8.1060   -7.6390  -20.7650 O.3  2955  WAT2955    -0.4105
   8861  H1         7.3410   -7.0700  -20.8500 H    2955  WAT2955     0.2052
   8862  H2         8.2880   -7.9310  -21.6590 H    2955  WAT2955     0.2052
   8863  O         15.2490   -5.9080  -20.2080 O.3  2956  WAT2956    -0.4105
   8864  H1        15.9900   -5.5710  -20.7110 H    2956  WAT2956     0.2052
   8865  H2        14.4860   -5.7390  -20.7610 H    2956  WAT2956     0.2052
   8866  O          3.0850  -10.9030  -19.4040 O.3  2957  WAT2957    -0.4105
   8867  H1         3.1250  -11.2010  -18.4950 H    2957  WAT2957     0.2052
   8868  H2         3.9390  -10.5020  -19.5630 H    2957  WAT2957     0.2052
   8869  O          5.0250  -12.3240  -21.4360 O.3  2958  WAT2958    -0.4105
   8870  H1         4.4950  -12.8150  -22.0640 H    2958  WAT2958     0.2052
   8871  H2         5.6940  -11.8950  -21.9710 H    2958  WAT2958     0.2052
   8872  O         13.9230   -7.8570  -21.6720 O.3  2959  WAT2959    -0.4105
   8873  H1        14.3370   -7.7020  -20.8230 H    2959  WAT2959     0.2052
   8874  H2        12.9880   -7.7310  -21.5100 H    2959  WAT2959     0.2052
   8875  O         14.3950  -10.5170  -19.6680 O.3  2960  WAT2960    -0.4105
   8876  H1        14.9770  -11.2720  -19.7560 H    2960  WAT2960     0.2052
   8877  H2        14.5720   -9.9860  -20.4450 H    2960  WAT2960     0.2052
   8878  O          5.5130  -15.3570  -21.3570 O.3  2961  WAT2961    -0.4105
   8879  H1         5.4180  -15.9750  -22.0820 H    2961  WAT2961     0.2052
   8880  H2         4.9320  -14.6310  -21.5840 H    2961  WAT2961     0.2052
   8881  O          8.2790  -16.8000  -24.3240 O.3  2962  WAT2962    -0.4105
   8882  H1         7.8300  -16.7780  -25.1690 H    2962  WAT2962     0.2052
   8883  H2         7.6450  -17.1980  -23.7270 H    2962  WAT2962     0.2052
   8884  O          8.6850   -7.9050  -23.7030 O.3  2963  WAT2963    -0.4105
   8885  H1         9.1030   -7.0610  -23.8750 H    2963  WAT2963     0.2052
   8886  H2         7.7660   -7.7670  -23.9320 H    2963  WAT2963     0.2052
   8887  O         11.0210  -10.1730  -22.3190 O.3  2964  WAT2964    -0.4105
   8888  H1        11.1410  -10.7690  -21.5790 H    2964  WAT2964     0.2052
   8889  H2        11.8800  -10.1360  -22.7390 H    2964  WAT2964     0.2052
   8890  O         13.3600   -9.6190  -23.7430 O.3  2965  WAT2965    -0.4105
   8891  H1        12.8330   -9.0950  -24.3460 H    2965  WAT2965     0.2052
   8892  H2        13.7030   -8.9870  -23.1120 H    2965  WAT2965     0.2052
   8893  O          6.5350   -1.5990  -22.5870 O.3  2966  WAT2966    -0.4105
   8894  H1         5.9980   -0.8750  -22.9060 H    2966  WAT2966     0.2052
   8895  H2         6.7890   -2.0760  -23.3770 H    2966  WAT2966     0.2052
   8896  O          7.7880  -13.6310  -21.0610 O.3  2967  WAT2967    -0.4105
   8897  H1         8.3780  -13.9390  -20.3740 H    2967  WAT2967     0.2052
   8898  H2         6.9700  -14.1030  -20.9050 H    2967  WAT2967     0.2052
   8899  O         12.6070  -14.0140  -20.8280 O.3  2968  WAT2968    -0.4105
   8900  H1        11.9190  -14.6760  -20.8930 H    2968  WAT2968     0.2052
   8901  H2        13.3280  -14.4600  -20.3830 H    2968  WAT2968     0.2052
   8902  O          9.3920   -0.3640  -22.3280 O.3  2969  WAT2969    -0.4105
   8903  H1         9.3180    0.5390  -22.0210 H    2969  WAT2969     0.2052
   8904  H2         8.4900   -0.6830  -22.3560 H    2969  WAT2969     0.2052
   8905  O          0.7940   -3.0370  -29.0250 O.3  2970  WAT2970    -0.4105
   8906  H1         1.1250   -3.9050  -29.2570 H    2970  WAT2970     0.2052
   8907  H2         1.2230   -2.8310  -28.1940 H    2970  WAT2970     0.2052
   8908  O          1.2830   -2.1700  -26.2870 O.3  2971  WAT2971    -0.4105
   8909  H1         0.8460   -1.9900  -25.4540 H    2971  WAT2971     0.2052
   8910  H2         1.8510   -1.4120  -26.4290 H    2971  WAT2971     0.2052
   8911  O         16.9200   -2.6680  -21.9990 O.3  2972  WAT2972    -0.4105
   8912  H1        16.3200   -2.6090  -22.7430 H    2972  WAT2972     0.2052
   8913  H2        17.0490   -3.6080  -21.8690 H    2972  WAT2972     0.2052
   8914  O         18.6210   -7.3260  -29.3140 O.3  2973  WAT2973    -0.4105
   8915  H1        18.9920   -8.1100  -29.7210 H    2973  WAT2973     0.2052
   8916  H2        19.2620   -6.6380  -29.4930 H    2973  WAT2973     0.2052
   8917  O         15.6050   -5.9430  -23.9010 O.3  2974  WAT2974    -0.4105
   8918  H1        14.7910   -5.5130  -23.6390 H    2974  WAT2974     0.2052
   8919  H2        16.0120   -5.3310  -24.5150 H    2974  WAT2974     0.2052
   8920  O          2.1530   -9.2720  -25.3880 O.3  2975  WAT2975    -0.4105
   8921  H1         2.5210   -9.3600  -24.5080 H    2975  WAT2975     0.2052
   8922  H2         1.5850  -10.0360  -25.4870 H    2975  WAT2975     0.2052
   8923  O         16.9540  -10.8040  -22.3750 O.3  2976  WAT2976    -0.4105
   8924  H1        16.7220  -11.0330  -23.2750 H    2976  WAT2976     0.2052
   8925  H2        17.2140   -9.8840  -22.4200 H    2976  WAT2976     0.2052
   8926  O          1.7050  -12.3620  -21.4820 O.3  2977  WAT2977    -0.4105
   8927  H1         0.8110  -12.3950  -21.1420 H    2977  WAT2977     0.2052
   8928  H2         2.2450  -12.1630  -20.7170 H    2977  WAT2977     0.2052
   8929  O         15.3930  -15.5780  -19.5970 O.3  2978  WAT2978    -0.4105
   8930  H1        16.2700  -15.5700  -19.2130 H    2978  WAT2978     0.2052
   8931  H2        15.4050  -16.3150  -20.2070 H    2978  WAT2978     0.2052
   8932  O         16.8390  -11.7250  -28.7080 O.3  2979  WAT2979    -0.4105
   8933  H1        17.3630  -12.2190  -29.3390 H    2979  WAT2979     0.2052
   8934  H2        17.4250  -11.5900  -27.9630 H    2979  WAT2979     0.2052
   8935  O         17.0180  -11.6410  -25.1860 O.3  2980  WAT2980    -0.4105
   8936  H1        16.0680  -11.6750  -25.0710 H    2980  WAT2980     0.2052
   8937  H2        17.1990  -10.7310  -25.4210 H    2980  WAT2980     0.2052
   8938  O          2.2090  -18.0870  -27.1330 O.3  2981  WAT2981    -0.4105
   8939  H1         2.8570  -18.6370  -27.5740 H    2981  WAT2981     0.2052
   8940  H2         2.6290  -17.8320  -26.3120 H    2981  WAT2981     0.2052
   8941  O         16.1040  -17.8930  -23.7760 O.3  2982  WAT2982    -0.4105
   8942  H1        16.7410  -17.2790  -23.4110 H    2982  WAT2982     0.2052
   8943  H2        16.2520  -17.8560  -24.7220 H    2982  WAT2982     0.2052
   8944  O          1.9620  -17.9310  -24.3910 O.3  2983  WAT2983    -0.4105
   8945  H1         1.6140  -17.4750  -23.6250 H    2983  WAT2983     0.2052
   8946  H2         1.6310  -18.8250  -24.3090 H    2983  WAT2983     0.2052
   8947  O          3.5690   -4.7590  -20.2260 O.3  2984  WAT2984    -0.4105
   8948  H1         3.5260   -5.1300  -19.3440 H    2984  WAT2984     0.2052
   8949  H2         3.7000   -3.8210  -20.0850 H    2984  WAT2984     0.2052
   8950  O          7.2690   -3.2030  -24.6250 O.3  2985  WAT2985    -0.4105
   8951  H1         7.0280   -2.9360  -25.5120 H    2985  WAT2985     0.2052
   8952  H2         8.2100   -3.0330  -24.5690 H    2985  WAT2985     0.2052
   8953  O          9.4750  -16.7400  -20.8690 O.3  2986  WAT2986    -0.4105
   8954  H1         9.4140  -16.1480  -20.1190 H    2986  WAT2986     0.2052
   8955  H2        10.4150  -16.8470  -21.0140 H    2986  WAT2986     0.2052
   8956  O         12.1120  -17.0830  -21.2300 O.3  2987  WAT2987    -0.4105
   8957  H1        12.7260  -16.7650  -21.8920 H    2987  WAT2987     0.2052
   8958  H2        12.6570  -17.5680  -20.6100 H    2987  WAT2987     0.2052
   8959  O         18.5300   -1.1840  -23.8240 O.3  2988  WAT2988    -0.4105
   8960  H1        18.0350   -0.7870  -24.5410 H    2988  WAT2988     0.2052
   8961  H2        17.9210   -1.8090  -23.4300 H    2988  WAT2988     0.2052
   8962  O          2.6340  -18.4030  -21.1160 O.3  2989  WAT2989    -0.4105
   8963  H1         3.1830  -18.5850  -21.8790 H    2989  WAT2989     0.2052
   8964  H2         2.7000  -19.1940  -20.5800 H    2989  WAT2989     0.2052
   8965  O          3.4070   -1.8130  -23.1060 O.3  2990  WAT2990    -0.4105
   8966  H1         2.8130   -1.9440  -22.3670 H    2990  WAT2990     0.2052
   8967  H2         3.4000   -2.6490  -23.5720 H    2990  WAT2990     0.2052
   8968  O         12.8530  -18.5200  -24.9030 O.3  2991  WAT2991    -0.4105
   8969  H1        11.9790  -18.1860  -25.1050 H    2991  WAT2991     0.2052
   8970  H2        12.7440  -18.9920  -24.0780 H    2991  WAT2991     0.2052
   8971  O         13.7600  -16.3130  -23.5190 O.3  2992  WAT2992    -0.4105
   8972  H1        13.4310  -17.1270  -23.8980 H    2992  WAT2992     0.2052
   8973  H2        14.7080  -16.3560  -23.6420 H    2992  WAT2992     0.2052
   8974  O         16.2140   -0.5410  -26.5450 O.3  2993  WAT2993    -0.4105
   8975  H1        15.7540    0.2100  -26.9190 H    2993  WAT2993     0.2052
   8976  H2        15.5850   -1.2610  -26.6030 H    2993  WAT2993     0.2052
   8977  O          3.0390   -4.4470  -24.1550 O.3  2994  WAT2994    -0.4105
   8978  H1         2.3120   -5.0670  -24.2220 H    2994  WAT2994     0.2052
   8979  H2         3.1000   -4.0530  -25.0250 H    2994  WAT2994     0.2052
   8980  O          6.6430   -2.2330  -27.3700 O.3  2995  WAT2995    -0.4105
   8981  H1         7.1600   -2.8440  -27.8950 H    2995  WAT2995     0.2052
   8982  H2         7.2930   -1.7300  -26.8790 H    2995  WAT2995     0.2052
   8983  O          9.3830   -1.3420  -26.5430 O.3  2996  WAT2996    -0.4105
   8984  H1         9.6710   -1.5960  -27.4200 H    2996  WAT2996     0.2052
   8985  H2         9.8950   -1.8940  -25.9530 H    2996  WAT2996     0.2052
   8986  O         10.6000  -17.6030  -25.9630 O.3  2997  WAT2997    -0.4105
   8987  H1         9.8180  -17.1280  -25.6840 H    2997  WAT2997     0.2052
   8988  H2        10.3070  -18.5070  -26.0720 H    2997  WAT2997     0.2052
   8989  O         15.1530  -16.9000  -27.9190 O.3  2998  WAT2998    -0.4105
   8990  H1        15.5930  -16.9560  -28.7660 H    2998  WAT2998     0.2052
   8991  H2        14.8830  -15.9850  -27.8480 H    2998  WAT2998     0.2052
   8992  O         12.9880  -18.5200  -29.2140 O.3  2999  WAT2999    -0.4105
   8993  H1        13.5910  -17.9480  -28.7390 H    2999  WAT2999     0.2052
   8994  H2        12.2480  -17.9560  -29.4360 H    2999  WAT2999     0.2052
   8995  O          9.4500   -0.4200  -19.1760 O.3  3000  WAT3000    -0.4105
   8996  H1        10.3770   -0.6560  -19.1330 H    3000  WAT3000     0.2052
   8997  H2         9.4350    0.4070  -19.6580 H    3000  WAT3000     0.2052
   8998  O          6.6360  -17.7560  -19.4120 O.3  3001  WAT3001    -0.4105
   8999  H1         6.3550  -17.2520  -20.1760 H    3001  WAT3001     0.2052
   9000  H2         7.0180  -18.5530  -19.7780 H    3001  WAT3001     0.2052
   9001  O         13.2380  -18.3400  -18.8340 O.3  3002  WAT3002    -0.4105
   9002  H1        13.1240  -18.0210  -17.9390 H    3002  WAT3002     0.2052
   9003  H2        14.0550  -17.9390  -19.1300 H    3002  WAT3002     0.2052
   9004  O         16.0180   -1.1930  -19.3520 O.3  3003  WAT3003    -0.4105
   9005  H1        16.8100   -1.6880  -19.5600 H    3003  WAT3003     0.2052
   9006  H2        16.3110   -0.5140  -18.7450 H    3003  WAT3003     0.2052
   9007  O         12.1440  -29.0950   26.6270 O.3  3004  WAT3004    -0.4105
   9008  H1        12.0630  -30.0100   26.3560 H    3004  WAT3004     0.2052
   9009  H2        11.7300  -28.5990   25.9210 H    3004  WAT3004     0.2052
   9010  O         10.2750  -27.3170   28.5080 O.3  3005  WAT3005    -0.4105
   9011  H1         9.5000  -27.7970   28.7980 H    3005  WAT3005     0.2052
   9012  H2        10.9270  -27.9970   28.3330 H    3005  WAT3005     0.2052
   9013  O         14.2960  -22.9110   27.2880 O.3  3006  WAT3006    -0.4105
   9014  H1        13.8340  -23.6830   27.6160 H    3006  WAT3006     0.2052
   9015  H2        15.1090  -22.8850   27.7930 H    3006  WAT3006     0.2052
   9016  O          4.2720  -22.9720   29.5810 O.3  3007  WAT3007    -0.4105
   9017  H1         4.5750  -23.8620   29.4020 H    3007  WAT3007     0.2052
   9018  H2         5.0170  -22.4140   29.3530 H    3007  WAT3007     0.2052
   9019  O         10.5230  -20.6260   26.9080 O.3  3008  WAT3008    -0.4105
   9020  H1         9.9040  -20.1700   26.3370 H    3008  WAT3008     0.2052
   9021  H2        11.3780  -20.4710   26.5070 H    3008  WAT3008     0.2052
   9022  O          9.7160  -24.6420   28.5150 O.3  3009  WAT3009    -0.4105
   9023  H1         9.6470  -25.5830   28.3540 H    3009  WAT3009     0.2052
   9024  H2        10.4780  -24.5520   29.0870 H    3009  WAT3009     0.2052
   9025  O         11.3890  -25.7420   24.3010 O.3  3010  WAT3010    -0.4105
   9026  H1        10.7710  -25.2770   23.7380 H    3010  WAT3010     0.2052
   9027  H2        11.9010  -25.0490   24.7180 H    3010  WAT3010     0.2052
   9028  O          0.7570  -25.0560   21.6750 O.3  3011  WAT3011    -0.4105
   9029  H1         0.3800  -24.5670   20.9440 H    3011  WAT3011     0.2052
   9030  H2         1.0150  -24.3840   22.3060 H    3011  WAT3011     0.2052
   9031  O         13.9180  -20.9380   29.4240 O.3  3012  WAT3012    -0.4105
   9032  H1        13.9300  -21.3420   28.5570 H    3012  WAT3012     0.2052
   9033  H2        13.3650  -20.1630   29.3210 H    3012  WAT3012     0.2052
   9034  O         15.2120  -24.2160   24.5140 O.3  3013  WAT3013    -0.4105
   9035  H1        15.1020  -25.1590   24.6380 H    3013  WAT3013     0.2052
   9036  H2        15.2090  -23.8550   25.4000 H    3013  WAT3013     0.2052
   9037  O         10.7540  -28.5900   23.8700 O.3  3014  WAT3014    -0.4105
   9038  H1         9.8270  -28.6560   24.0990 H    3014  WAT3014     0.2052
   9039  H2        10.9070  -27.6520   23.7550 H    3014  WAT3014     0.2052
   9040  O         14.7840  -27.0280   24.3730 O.3  3015  WAT3015    -0.4105
   9041  H1        14.1650  -27.3660   23.7260 H    3015  WAT3015     0.2052
   9042  H2        14.7660  -27.6720   25.0810 H    3015  WAT3015     0.2052
   9043  O          6.3600  -28.0630   26.6520 O.3  3016  WAT3016    -0.4105
   9044  H1         5.9560  -28.7750   26.1560 H    3016  WAT3016     0.2052
   9045  H2         6.4460  -28.4080   27.5410 H    3016  WAT3016     0.2052
   9046  O          6.8280  -24.3760   28.8160 O.3  3017  WAT3017    -0.4105
   9047  H1         6.5310  -24.9820   28.1360 H    3017  WAT3017     0.2052
   9048  H2         7.7780  -24.3390   28.7050 H    3017  WAT3017     0.2052
   9049  O         12.9600  -27.7890   21.3810 O.3  3018  WAT3018    -0.4105
   9050  H1        13.4000  -28.6270   21.2340 H    3018  WAT3018     0.2052
   9051  H2        13.6730  -27.1560   21.4670 H    3018  WAT3018     0.2052
   9052  O         11.0700  -22.8490   25.3490 O.3  3019  WAT3019    -0.4105
   9053  H1        11.5100  -22.1070   24.9340 H    3019  WAT3019     0.2052
   9054  H2        11.0090  -22.6070   26.2730 H    3019  WAT3019     0.2052
   9055  O          3.0600  -29.1690   24.1520 O.3  3020  WAT3020    -0.4105
   9056  H1         2.9400  -28.4420   23.5410 H    3020  WAT3020     0.2052
   9057  H2         2.7500  -29.9380   23.6750 H    3020  WAT3020     0.2052
   9058  O          1.9440  -24.2970   26.3700 O.3  3021  WAT3021    -0.4105
   9059  H1         1.5360  -24.1560   25.5150 H    3021  WAT3021     0.2052
   9060  H2         2.8350  -24.5810   26.1670 H    3021  WAT3021     0.2052
   9061  O         13.7370  -19.8620   22.7050 O.3  3022  WAT3022    -0.4105
   9062  H1        13.5770  -20.1520   23.6030 H    3022  WAT3022     0.2052
   9063  H2        13.5720  -20.6380   22.1700 H    3022  WAT3022     0.2052
   9064  O          6.2160  -20.0820   24.4820 O.3  3023  WAT3023    -0.4105
   9065  H1         6.0400  -20.9990   24.2690 H    3023  WAT3023     0.2052
   9066  H2         5.3610  -19.7240   24.7220 H    3023  WAT3023     0.2052
   9067  O         13.4400  -22.3540   21.2650 O.3  3024  WAT3024    -0.4105
   9068  H1        12.7460  -22.3560   20.6050 H    3024  WAT3024     0.2052
   9069  H2        14.1820  -22.7780   20.8340 H    3024  WAT3024     0.2052
   9070  O         13.0050  -20.7270   25.3400 O.3  3025  WAT3025    -0.4105
   9071  H1        13.4600  -21.5080   25.6530 H    3025  WAT3025     0.2052
   9072  H2        13.3440  -20.0170   25.8840 H    3025  WAT3025     0.2052
   9073  O          7.2520  -29.4820   20.7820 O.3  3026  WAT3026    -0.4105
   9074  H1         6.6830  -29.9300   20.1550 H    3026  WAT3026     0.2052
   9075  H2         7.9610  -29.1220   20.2480 H    3026  WAT3026     0.2052
   9076  O          4.7970  -25.4860   23.0540 O.3  3027  WAT3027    -0.4105
   9077  H1         4.0230  -26.0260   22.8940 H    3027  WAT3027     0.2052
   9078  H2         5.5260  -26.0050   22.7160 H    3027  WAT3027     0.2052
   9079  O         15.5550  -26.4890   28.8470 O.3  3028  WAT3028    -0.4105
   9080  H1        16.2750  -25.9940   28.4570 H    3028  WAT3028     0.2052
   9081  H2        15.3540  -27.1680   28.2020 H    3028  WAT3028     0.2052
   9082  O          4.8400  -25.8180   26.6920 O.3  3029  WAT3029    -0.4105
   9083  H1         5.3580  -26.6210   26.6380 H    3029  WAT3029     0.2052
   9084  H2         4.3890  -25.8800   27.5340 H    3029  WAT3029     0.2052
   9085  O          9.7270  -24.5510   21.9650 O.3  3030  WAT3030    -0.4105
   9086  H1        10.0690  -23.8070   21.4690 H    3030  WAT3030     0.2052
   9087  H2         8.8980  -24.2380   22.3270 H    3030  WAT3030     0.2052
   9088  O         16.0030  -29.4120   20.7540 O.3  3031  WAT3031    -0.4105
   9089  H1        15.9190  -28.9810   19.9040 H    3031  WAT3031     0.2052
   9090  H2        16.7220  -28.9530   21.1870 H    3031  WAT3031     0.2052
   9091  O         17.0310  -22.5580   23.4820 O.3  3032  WAT3032    -0.4105
   9092  H1        16.3890  -23.2130   23.7570 H    3032  WAT3032     0.2052
   9093  H2        16.6440  -22.1530   22.7060 H    3032  WAT3032     0.2052
   9094  O         12.6100  -25.2300   27.3290 O.3  3033  WAT3033    -0.4105
   9095  H1        12.9620  -25.8270   26.6700 H    3033  WAT3033     0.2052
   9096  H2        11.7260  -25.5550   27.5000 H    3033  WAT3033     0.2052
   9097  O          8.6960  -24.4700   24.7360 O.3  3034  WAT3034    -0.4105
   9098  H1         9.3830  -23.9230   25.1170 H    3034  WAT3034     0.2052
   9099  H2         7.9100  -23.9260   24.7710 H    3034  WAT3034     0.2052
   9100  O          0.8360  -28.8530   20.2280 O.3  3035  WAT3035    -0.4105
   9101  H1         1.7050  -28.5700   20.5120 H    3035  WAT3035     0.2052
   9102  H2         0.3450  -28.0390   20.1130 H    3035  WAT3035     0.2052
   9103  O          7.9990  -27.4650   24.3490 O.3  3036  WAT3036    -0.4105
   9104  H1         8.4550  -26.6550   24.5750 H    3036  WAT3036     0.2052
   9105  H2         7.6480  -27.7830   25.1810 H    3036  WAT3036     0.2052
   9106  O         15.4210  -23.6670   20.0200 O.3  3037  WAT3037    -0.4105
   9107  H1        15.1950  -24.3840   20.6120 H    3037  WAT3037     0.2052
   9108  H2        15.0310  -23.9150   19.1820 H    3037  WAT3037     0.2052
   9109  O          1.2030  -19.6400   20.7940 O.3  3038  WAT3038    -0.4105
   9110  H1         1.5620  -19.0410   20.1400 H    3038  WAT3038     0.2052
   9111  H2         1.0620  -19.0940   21.5680 H    3038  WAT3038     0.2052
   9112  O         15.0030  -25.7490   21.6810 O.3  3039  WAT3039    -0.4105
   9113  H1        14.7150  -25.2880   22.4690 H    3039  WAT3039     0.2052
   9114  H2        15.7980  -26.2100   21.9500 H    3039  WAT3039     0.2052
   9115  O          7.2200  -22.2570   21.6120 O.3  3040  WAT3040    -0.4105
   9116  H1         7.2110  -21.5240   20.9960 H    3040  WAT3040     0.2052
   9117  H2         6.2990  -22.5040   21.7040 H    3040  WAT3040     0.2052
   9118  O          2.8200  -27.0350   22.3560 O.3  3041  WAT3041    -0.4105
   9119  H1         2.2130  -26.2950   22.3660 H    3041  WAT3041     0.2052
   9120  H2         3.2950  -26.9450   21.5300 H    3041  WAT3041     0.2052
   9121  O         10.2050  -22.1940   20.2740 O.3  3042  WAT3042    -0.4105
   9122  H1        10.3070  -22.3980   19.3440 H    3042  WAT3042     0.2052
   9123  H2         9.3060  -22.4480   20.4790 H    3042  WAT3042     0.2052
   9124  O          8.8470  -19.6750   24.9690 O.3  3043  WAT3043    -0.4105
   9125  H1         9.1010  -19.7130   24.0470 H    3043  WAT3043     0.2052
   9126  H2         7.8990  -19.8020   24.9620 H    3043  WAT3043     0.2052
   9127  O         14.8530  -28.7560   26.5450 O.3  3044  WAT3044    -0.4105
   9128  H1        13.9120  -28.7410   26.7200 H    3044  WAT3044     0.2052
   9129  H2        15.1670  -29.5430   26.9910 H    3044  WAT3044     0.2052
   9130  O          4.8310  -27.0740   20.1050 O.3  3045  WAT3045    -0.4105
   9131  H1         5.5970  -27.1860   20.6680 H    3045  WAT3045     0.2052
   9132  H2         4.9080  -27.7700   19.4530 H    3045  WAT3045     0.2052
   9133  O         16.8550  -21.5850   28.2200 O.3  3046  WAT3046    -0.4105
   9134  H1        16.9800  -20.7620   28.6930 H    3046  WAT3046     0.2052
   9135  H2        17.7220  -21.7960   27.8730 H    3046  WAT3046     0.2052
   9136  O          4.3270  -19.4920   27.8920 O.3  3047  WAT3047    -0.4105
   9137  H1         5.0630  -20.0410   28.1630 H    3047  WAT3047     0.2052
   9138  H2         4.7110  -18.6270   27.7530 H    3047  WAT3047     0.2052
   9139  O          1.2110  -23.4250   23.7660 O.3  3048  WAT3048    -0.4105
   9140  H1         0.2850  -23.1830   23.7570 H    3048  WAT3048     0.2052
   9141  H2         1.6770  -22.5970   23.6450 H    3048  WAT3048     0.2052
   9142  O          7.4370  -20.3190   19.7150 O.3  3049  WAT3049    -0.4105
   9143  H1         8.2300  -20.0300   19.2630 H    3049  WAT3049     0.2052
   9144  H2         6.9180  -20.7500   19.0360 H    3049  WAT3049     0.2052
   9145  O         16.4900  -21.0920   21.1380 O.3  3050  WAT3050    -0.4105
   9146  H1        16.2040  -21.5060   20.3240 H    3050  WAT3050     0.2052
   9147  H2        16.2920  -20.1630   21.0180 H    3050  WAT3050     0.2052
   9148  O          7.9550  -25.0990   19.5790 O.3  3051  WAT3051    -0.4105
   9149  H1         7.8500  -25.7130   20.3050 H    3051  WAT3051     0.2052
   9150  H2         7.7870  -25.6220   18.7950 H    3051  WAT3051     0.2052
   9151  O         11.1950  -26.0370   20.1830 O.3  3052  WAT3052    -0.4105
   9152  H1        10.6460  -25.5900   20.8270 H    3052  WAT3052     0.2052
   9153  H2        11.8170  -26.5420   20.7070 H    3052  WAT3052     0.2052
   9154  O          6.8630  -27.0780   22.0790 O.3  3053  WAT3053    -0.4105
   9155  H1         7.2840  -27.2440   22.9230 H    3053  WAT3053     0.2052
   9156  H2         6.9880  -27.8880   21.5850 H    3053  WAT3053     0.2052
   9157  O          9.3750  -28.0540   19.3270 O.3  3054  WAT3054    -0.4105
   9158  H1         9.8960  -28.7690   18.9610 H    3054  WAT3054     0.2052
   9159  H2        10.0220  -27.4150   19.6270 H    3054  WAT3054     0.2052
   9160  O          9.9400  -19.9730   21.6170 O.3  3055  WAT3055    -0.4105
   9161  H1        10.8350  -19.6340   21.6390 H    3055  WAT3055     0.2052
   9162  H2         9.9720  -20.6950   20.9900 H    3055  WAT3055     0.2052
   9163  O          3.5800  -24.6000   19.8460 O.3  3056  WAT3056    -0.4105
   9164  H1         4.0170  -24.0570   20.5020 H    3056  WAT3056     0.2052
   9165  H2         4.0650  -25.4250   19.8560 H    3056  WAT3056     0.2052
   9166  O          0.7940  -21.8110   27.2980 O.3  3057  WAT3057    -0.4105
   9167  H1         1.1250  -22.6790   27.0660 H    3057  WAT3057     0.2052
   9168  H2         1.2230  -21.6050   28.1290 H    3057  WAT3057     0.2052
   9169  O          5.3910  -23.4800   24.9580 O.3  3058  WAT3058    -0.4105
   9170  H1         5.0900  -23.6040   25.8590 H    3058  WAT3058     0.2052
   9171  H2         5.2840  -24.3390   24.5500 H    3058  WAT3058     0.2052
   9172  O         18.1600  -23.7010   19.6610 O.3  3059  WAT3059    -0.4105
   9173  H1        17.3290  -23.6330   20.1320 H    3059  WAT3059     0.2052
   9174  H2        18.3370  -22.8100   19.3580 H    3059  WAT3059     0.2052
   9175  O         17.6150  -26.9560   22.1640 O.3  3060  WAT3060    -0.4105
   9176  H1        18.3770  -26.3860   22.2700 H    3060  WAT3060     0.2052
   9177  H2        17.6310  -27.5230   22.9350 H    3060  WAT3060     0.2052
   9178  O          1.1160  -28.4320   26.3950 O.3  3061  WAT3061    -0.4105
   9179  H1         0.4610  -28.7010   25.7510 H    3061  WAT3061     0.2052
   9180  H2         1.9540  -28.5420   25.9450 H    3061  WAT3061     0.2052
   9181  O         18.6210  -26.1010   27.0090 O.3  3062  WAT3062    -0.4105
   9182  H1        18.9920  -26.8840   26.6020 H    3062  WAT3062     0.2052
   9183  H2        19.2620  -25.4120   26.8300 H    3062  WAT3062     0.2052
   9184  O         17.6670  -26.6620   19.3220 O.3  3063  WAT3063    -0.4105
   9185  H1        17.9420  -25.7540   19.1940 H    3063  WAT3063     0.2052
   9186  H2        17.4780  -26.7260   20.2580 H    3063  WAT3063     0.2052
   9187  O         17.5640  -28.7250   24.3150 O.3  3064  WAT3064    -0.4105
   9188  H1        17.1880  -29.4930   23.8830 H    3064  WAT3064     0.2052
   9189  H2        16.8340  -28.3430   24.8020 H    3064  WAT3064     0.2052
   9190  O         15.6620  -19.9650   25.9480 O.3  3065  WAT3065    -0.4105
   9191  H1        16.2580  -20.2870   25.2720 H    3065  WAT3065     0.2052
   9192  H2        15.9200  -20.4380   26.7400 H    3065  WAT3065     0.2052
   9193  O         16.2140  -19.3160   29.7780 O.3  3066  WAT3066    -0.4105
   9194  H1        15.7540  -18.5640   29.4040 H    3066  WAT3066     0.2052
   9195  H2        15.5850  -20.0350   29.7200 H    3066  WAT3066     0.2052
   9196  O          6.6430  -21.0070   28.9530 O.3  3067  WAT3067    -0.4105
   9197  H1         7.1600  -21.6180   28.4280 H    3067  WAT3067     0.2052
   9198  H2         7.2930  -20.5040   29.4440 H    3067  WAT3067     0.2052
   9199  O          1.3220  -19.9040   25.3780 O.3  3068  WAT3068    -0.4105
   9200  H1         1.1540  -20.5370   26.0760 H    3068  WAT3068     0.2052
   9201  H2         0.4550  -19.6980   25.0270 H    3068  WAT3068     0.2052
   9202  O          2.9280  -21.2110   22.8230 O.3  3069  WAT3069    -0.4105
   9203  H1         2.4030  -20.8300   22.1190 H    3069  WAT3069     0.2052
   9204  H2         2.8520  -20.5860   23.5440 H    3069  WAT3069     0.2052
   9205  O         17.6840  -19.6520   24.1440 O.3  3070  WAT3070    -0.4105
   9206  H1        17.8600  -20.3380   23.5000 H    3070  WAT3070     0.2052
   9207  H2        16.9870  -19.1270   23.7520 H    3070  WAT3070     0.2052
   9208  O          5.5270  -19.2620   21.6980 O.3  3071  WAT3071    -0.4105
   9209  H1         6.2590  -19.5470   21.1500 H    3071  WAT3071     0.2052
   9210  H2         5.7870  -19.5010   22.5880 H    3071  WAT3071     0.2052
   9211  O          4.6890  -23.1460   21.7020 O.3  3072  WAT3072    -0.4105
   9212  H1         4.0600  -22.6770   22.2510 H    3072  WAT3072     0.2052
   9213  H2         4.8030  -23.9910   22.1370 H    3072  WAT3072     0.2052
   9214  O         12.1440  -29.0950    7.8520 O.3  3073  WAT3073    -0.4105
   9215  H1        12.0630  -30.0100    7.5820 H    3073  WAT3073     0.2052
   9216  H2        11.7300  -28.5990    7.1460 H    3073  WAT3073     0.2052
   9217  O         10.2750  -27.3170    9.7330 O.3  3074  WAT3074    -0.4105
   9218  H1         9.5000  -27.7970   10.0230 H    3074  WAT3074     0.2052
   9219  H2        10.9270  -27.9970    9.5590 H    3074  WAT3074     0.2052
   9220  O          4.2920  -27.0060   10.6110 O.3  3075  WAT3075    -0.4105
   9221  H1         3.4610  -27.2610   11.0110 H    3075  WAT3075     0.2052
   9222  H2         4.9000  -26.9340   11.3470 H    3075  WAT3075     0.2052
   9223  O         14.2960  -22.9110    8.5130 O.3  3076  WAT3076    -0.4105
   9224  H1        13.8340  -23.6830    8.8420 H    3076  WAT3076     0.2052
   9225  H2        15.1090  -22.8850    9.0190 H    3076  WAT3076     0.2052
   9226  O          4.2720  -22.9720   10.8070 O.3  3077  WAT3077    -0.4105
   9227  H1         4.5750  -23.8620   10.6280 H    3077  WAT3077     0.2052
   9228  H2         5.0170  -22.4140   10.5790 H    3077  WAT3077     0.2052
   9229  O         10.5230  -20.6260    8.1340 O.3  3078  WAT3078    -0.4105
   9230  H1         9.9040  -20.1700    7.5630 H    3078  WAT3078     0.2052
   9231  H2        11.3780  -20.4710    7.7330 H    3078  WAT3078     0.2052
   9232  O          9.7160  -24.6420    9.7400 O.3  3079  WAT3079    -0.4105
   9233  H1         9.6470  -25.5830    9.5790 H    3079  WAT3079     0.2052
   9234  H2        10.4780  -24.5520   10.3130 H    3079  WAT3079     0.2052
   9235  O         11.3890  -25.7420    5.5270 O.3  3080  WAT3080    -0.4105
   9236  H1        10.7710  -25.2770    4.9630 H    3080  WAT3080     0.2052
   9237  H2        11.9010  -25.0490    5.9440 H    3080  WAT3080     0.2052
   9238  O          6.2520  -26.2140   12.2050 O.3  3081  WAT3081    -0.4105
   9239  H1         5.9190  -25.5870   12.8470 H    3081  WAT3081     0.2052
   9240  H2         6.4290  -25.6880   11.4250 H    3081  WAT3081     0.2052
   9241  O          5.4640  -24.2460   14.0200 O.3  3082  WAT3082    -0.4105
   9242  H1         6.0810  -23.5710   13.7390 H    3082  WAT3082     0.2052
   9243  H2         4.6030  -23.8370   13.9290 H    3082  WAT3082     0.2052
   9244  O          0.7570  -25.0560    2.9010 O.3  3083  WAT3083    -0.4105
   9245  H1         0.3800  -24.5670    2.1690 H    3083  WAT3083     0.2052
   9246  H2         1.0150  -24.3840    3.5310 H    3083  WAT3083     0.2052
   9247  O         16.3820  -22.7820   11.9360 O.3  3084  WAT3084    -0.4105
   9248  H1        15.6980  -22.1120   11.9270 H    3084  WAT3084     0.2052
   9249  H2        16.9210  -22.5840   11.1700 H    3084  WAT3084     0.2052
   9250  O         13.9180  -20.9380   10.6500 O.3  3085  WAT3085    -0.4105
   9251  H1        13.9300  -21.3420    9.7820 H    3085  WAT3085     0.2052
   9252  H2        13.3650  -20.1630   10.5460 H    3085  WAT3085     0.2052
   9253  O         15.2120  -24.2160    5.7390 O.3  3086  WAT3086    -0.4105
   9254  H1        15.1020  -25.1590    5.8640 H    3086  WAT3086     0.2052
   9255  H2        15.2090  -23.8550    6.6250 H    3086  WAT3086     0.2052
   9256  O         13.3160  -26.0350   11.9780 O.3  3087  WAT3087    -0.4105
   9257  H1        13.7330  -26.2490   11.1440 H    3087  WAT3087     0.2052
   9258  H2        14.0400  -25.7770   12.5490 H    3087  WAT3087     0.2052
   9259  O         10.7540  -28.5900    5.0950 O.3  3088  WAT3088    -0.4105
   9260  H1         9.8270  -28.6560    5.3240 H    3088  WAT3088     0.2052
   9261  H2        10.9070  -27.6520    4.9810 H    3088  WAT3088     0.2052
   9262  O         17.2620  -27.6360   12.0700 O.3  3089  WAT3089    -0.4105
   9263  H1        16.4340  -27.5670   11.5950 H    3089  WAT3089     0.2052
   9264  H2        17.8570  -27.0510   11.6020 H    3089  WAT3089     0.2052
   9265  O         14.7840  -27.0280    5.5990 O.3  3090  WAT3090    -0.4105
   9266  H1        14.1650  -27.3660    4.9520 H    3090  WAT3090     0.2052
   9267  H2        14.7660  -27.6720    6.3070 H    3090  WAT3090     0.2052
   9268  O          6.3600  -28.0630    7.8770 O.3  3091  WAT3091    -0.4105
   9269  H1         5.9560  -28.7750    7.3820 H    3091  WAT3091     0.2052
   9270  H2         6.4460  -28.4080    8.7660 H    3091  WAT3091     0.2052
   9271  O          6.8280  -24.3760   10.0410 O.3  3092  WAT3092    -0.4105
   9272  H1         6.5310  -24.9820    9.3620 H    3092  WAT3092     0.2052
   9273  H2         7.7780  -24.3390    9.9300 H    3092  WAT3092     0.2052
   9274  O         14.9170  -20.8030   13.7040 O.3  3093  WAT3093    -0.4105
   9275  H1        14.4400  -19.9960   13.5110 H    3093  WAT3093     0.2052
   9276  H2        14.2330  -21.4550   13.8560 H    3093  WAT3093     0.2052
   9277  O          5.9200  -24.6380   16.6920 O.3  3094  WAT3094    -0.4105
   9278  H1         5.0230  -24.4140   16.9390 H    3094  WAT3094     0.2052
   9279  H2         5.9450  -24.5150   15.7430 H    3094  WAT3094     0.2052
   9280  O         12.9600  -27.7890    2.6060 O.3  3095  WAT3095    -0.4105
   9281  H1        13.4000  -28.6270    2.4600 H    3095  WAT3095     0.2052
   9282  H2        13.6730  -27.1560    2.6930 H    3095  WAT3095     0.2052
   9283  O          4.7470  -27.7670   15.2680 O.3  3096  WAT3096    -0.4105
   9284  H1         4.6080  -26.8950   15.6370 H    3096  WAT3096     0.2052
   9285  H2         3.8650  -28.1100   15.1230 H    3096  WAT3096     0.2052
   9286  O         11.0700  -22.8490    6.5740 O.3  3097  WAT3097    -0.4105
   9287  H1        11.5100  -22.1070    6.1600 H    3097  WAT3097     0.2052
   9288  H2        11.0090  -22.6070    7.4980 H    3097  WAT3097     0.2052
   9289  O          6.5450  -21.8250   17.4760 O.3  3098  WAT3098    -0.4105
   9290  H1         6.5170  -21.4200   16.6090 H    3098  WAT3098     0.2052
   9291  H2         6.3820  -22.7540   17.3130 H    3098  WAT3098     0.2052
   9292  O          3.0600  -29.1690    5.3780 O.3  3099  WAT3099    -0.4105
   9293  H1         2.9400  -28.4420    4.7660 H    3099  WAT3099     0.2052
   9294  H2         2.7500  -29.9380    4.9010 H    3099  WAT3099     0.2052
   9295  O         18.4970  -21.0420   18.7730 O.3  3100  WAT3100    -0.4105
   9296  H1        18.9720  -20.5640   19.4520 H    3100  WAT3100     0.2052
   9297  H2        19.1170  -21.1100   18.0470 H    3100  WAT3100     0.2052
   9298  O          0.6990  -25.9970   11.1850 O.3  3101  WAT3101    -0.4105
   9299  H1         0.7770  -25.8620   10.2400 H    3101  WAT3101     0.2052
   9300  H2         1.3130  -26.7060   11.3780 H    3101  WAT3101     0.2052
   9301  O          1.9440  -24.2970    7.5960 O.3  3102  WAT3102    -0.4105
   9302  H1         1.5360  -24.1560    6.7410 H    3102  WAT3102     0.2052
   9303  H2         2.8350  -24.5810    7.3930 H    3102  WAT3102     0.2052
   9304  O         17.9000  -23.8510   15.9330 O.3  3103  WAT3103    -0.4105
   9305  H1        18.0260  -24.0890   15.0140 H    3103  WAT3103     0.2052
   9306  H2        17.9420  -24.6820   16.4050 H    3103  WAT3103     0.2052
   9307  O         11.7620  -20.1480   14.5020 O.3  3104  WAT3104    -0.4105
   9308  H1        12.2760  -20.2370   15.3040 H    3104  WAT3104     0.2052
   9309  H2        10.9180  -19.8020   14.7950 H    3104  WAT3104     0.2052
   9310  O         13.7370  -19.8620    3.9310 O.3  3105  WAT3105    -0.4105
   9311  H1        13.5770  -20.1520    4.8290 H    3105  WAT3105     0.2052
   9312  H2        13.5720  -20.6380    3.3950 H    3105  WAT3105     0.2052
   9313  O          6.2160  -20.0820    5.7080 O.3  3106  WAT3106    -0.4105
   9314  H1         6.0400  -20.9990    5.4950 H    3106  WAT3106     0.2052
   9315  H2         5.3610  -19.7240    5.9480 H    3106  WAT3106     0.2052
   9316  O         13.4400  -22.3540    2.4900 O.3  3107  WAT3107    -0.4105
   9317  H1        12.7460  -22.3560    1.8310 H    3107  WAT3107     0.2052
   9318  H2        14.1820  -22.7780    2.0600 H    3107  WAT3107     0.2052
   9319  O         13.0050  -20.7270    6.5650 O.3  3108  WAT3108    -0.4105
   9320  H1        13.4600  -21.5080    6.8790 H    3108  WAT3108     0.2052
   9321  H2        13.3440  -20.0170    7.1090 H    3108  WAT3108     0.2052
   9322  O          0.7550  -24.9560   13.7240 O.3  3109  WAT3109    -0.4105
   9323  H1         0.9180  -25.4250   12.9060 H    3109  WAT3109     0.2052
   9324  H2         1.2200  -25.4630   14.3890 H    3109  WAT3109     0.2052
   9325  O          7.2520  -29.4820    2.0070 O.3  3110  WAT3110    -0.4105
   9326  H1         6.6830  -29.9300    1.3810 H    3110  WAT3110     0.2052
   9327  H2         7.9610  -29.1220    1.4740 H    3110  WAT3110     0.2052
   9328  O          2.3290  -25.5810   15.8840 O.3  3111  WAT3111    -0.4105
   9329  H1         1.9440  -26.2210   16.4820 H    3111  WAT3111     0.2052
   9330  H2         2.6400  -24.8770   16.4530 H    3111  WAT3111     0.2052
   9331  O          8.4780  -28.7330   11.3650 O.3  3112  WAT3112    -0.4105
   9332  H1         8.8450  -29.2070   12.1110 H    3112  WAT3112     0.2052
   9333  H2         8.2890  -27.8590   11.7060 H    3112  WAT3112     0.2052
   9334  O          6.2680  -29.6920   13.6830 O.3  3113  WAT3113    -0.4105
   9335  H1         5.9640  -28.8130   13.9080 H    3113  WAT3113     0.2052
   9336  H2         7.2230  -29.6320   13.7190 H    3113  WAT3113     0.2052
   9337  O          4.7970  -25.4860    4.2800 O.3  3114  WAT3114    -0.4105
   9338  H1         4.0230  -26.0260    4.1200 H    3114  WAT3114     0.2052
   9339  H2         5.5260  -26.0050    3.9420 H    3114  WAT3114     0.2052
   9340  O         15.5550  -26.4890   10.0730 O.3  3115  WAT3115    -0.4105
   9341  H1        16.2750  -25.9940    9.6820 H    3115  WAT3115     0.2052
   9342  H2        15.3540  -27.1680    9.4280 H    3115  WAT3115     0.2052
   9343  O         10.9370  -26.4180   15.9590 O.3  3116  WAT3116    -0.4105
   9344  H1        10.8710  -27.3390   15.7050 H    3116  WAT3116     0.2052
   9345  H2        10.3080  -26.3210   16.6740 H    3116  WAT3116     0.2052
   9346  O          4.8400  -25.8180    7.9180 O.3  3117  WAT3117    -0.4105
   9347  H1         5.3580  -26.6210    7.8630 H    3117  WAT3117     0.2052
   9348  H2         4.3890  -25.8800    8.7590 H    3117  WAT3117     0.2052
   9349  O          9.7270  -24.5510    3.1910 O.3  3118  WAT3118    -0.4105
   9350  H1        10.0690  -23.8070    2.6950 H    3118  WAT3118     0.2052
   9351  H2         8.8980  -24.2380    3.5530 H    3118  WAT3118     0.2052
   9352  O          2.3250  -28.8520   14.8300 O.3  3119  WAT3119    -0.4105
   9353  H1         1.9660  -28.1860   15.4180 H    3119  WAT3119     0.2052
   9354  H2         2.0300  -29.6830   15.2020 H    3119  WAT3119     0.2052
   9355  O          5.5260  -28.3930   17.7140 O.3  3120  WAT3120    -0.4105
   9356  H1         5.2260  -28.2480   16.8170 H    3120  WAT3120     0.2052
   9357  H2         6.2970  -28.9530   17.6220 H    3120  WAT3120     0.2052
   9358  O         10.8690  -23.5960   15.7100 O.3  3121  WAT3121    -0.4105
   9359  H1        10.8830  -24.5280   15.4920 H    3121  WAT3121     0.2052
   9360  H2        10.1610  -23.5100   16.3490 H    3121  WAT3121     0.2052
   9361  O         16.0030  -29.4120    1.9800 O.3  3122  WAT3122    -0.4105
   9362  H1        15.9190  -28.9810    1.1290 H    3122  WAT3122     0.2052
   9363  H2        16.7220  -28.9530    2.4120 H    3122  WAT3122     0.2052
   9364  O         17.0800  -26.9560   15.0570 O.3  3123  WAT3123    -0.4105
   9365  H1        16.3550  -26.3630   14.8600 H    3123  WAT3123     0.2052
   9366  H2        17.6080  -26.9630   14.2580 H    3123  WAT3123     0.2052
   9367  O         17.0310  -22.5580    4.7080 O.3  3124  WAT3124    -0.4105
   9368  H1        16.3890  -23.2130    4.9820 H    3124  WAT3124     0.2052
   9369  H2        16.6440  -22.1530    3.9320 H    3124  WAT3124     0.2052
   9370  O         12.6100  -25.2300    8.5550 O.3  3125  WAT3125    -0.4105
   9371  H1        12.9620  -25.8270    7.8950 H    3125  WAT3125     0.2052
   9372  H2        11.7260  -25.5550    8.7260 H    3125  WAT3125     0.2052
   9373  O          8.6960  -24.4700    5.9620 O.3  3126  WAT3126    -0.4105
   9374  H1         9.3830  -23.9230    6.3430 H    3126  WAT3126     0.2052
   9375  H2         7.9100  -23.9260    5.9970 H    3126  WAT3126     0.2052
   9376  O          0.8360  -28.8530    1.4540 O.3  3127  WAT3127    -0.4105
   9377  H1         1.7050  -28.5700    1.7370 H    3127  WAT3127     0.2052
   9378  H2         0.3450  -28.0390    1.3390 H    3127  WAT3127     0.2052
   9379  O          7.9990  -27.4650    5.5750 O.3  3128  WAT3128    -0.4105
   9380  H1         8.4550  -26.6550    5.8010 H    3128  WAT3128     0.2052
   9381  H2         7.6480  -27.7830    6.4060 H    3128  WAT3128     0.2052
   9382  O         10.3020  -21.9550   12.8040 O.3  3129  WAT3129    -0.4105
   9383  H1        10.9460  -21.7490   13.4810 H    3129  WAT3129     0.2052
   9384  H2        10.6650  -22.7160   12.3510 H    3129  WAT3129     0.2052
   9385  O         11.5750  -23.9510   11.5220 O.3  3130  WAT3130    -0.4105
   9386  H1        12.2180  -24.6520   11.6350 H    3130  WAT3130     0.2052
   9387  H2        12.1000  -23.1720   11.3410 H    3130  WAT3130     0.2052
   9388  O         15.4210  -23.6670    1.2460 O.3  3131  WAT3131    -0.4105
   9389  H1        15.1950  -24.3840    1.8380 H    3131  WAT3131     0.2052
   9390  H2        15.0310  -23.9150    0.4080 H    3131  WAT3131     0.2052
   9391  O         13.3490  -23.1520   14.7250 O.3  3132  WAT3132    -0.4105
   9392  H1        13.6850  -22.5650   15.4030 H    3132  WAT3132     0.2052
   9393  H2        12.4290  -23.2830   14.9550 H    3132  WAT3132     0.2052
   9394  O          1.2030  -19.6400    2.0200 O.3  3133  WAT3133    -0.4105
   9395  H1         1.5620  -19.0410    1.3660 H    3133  WAT3133     0.2052
   9396  H2         1.0620  -19.0940    2.7930 H    3133  WAT3133     0.2052
   9397  O         15.0030  -25.7490    2.9070 O.3  3134  WAT3134    -0.4105
   9398  H1        14.7150  -25.2880    3.6950 H    3134  WAT3134     0.2052
   9399  H2        15.7980  -26.2100    3.1750 H    3134  WAT3134     0.2052
   9400  O          1.1870  -21.3740   16.4940 O.3  3135  WAT3135    -0.4105
   9401  H1         1.2960  -22.3150   16.3540 H    3135  WAT3135     0.2052
   9402  H2         0.5350  -21.1090   15.8460 H    3135  WAT3135     0.2052
   9403  O          9.1780  -23.1030   17.8940 O.3  3136  WAT3136    -0.4105
   9404  H1         8.8580  -23.8220   18.4390 H    3136  WAT3136     0.2052
   9405  H2         8.5040  -22.4270   17.9680 H    3136  WAT3136     0.2052
   9406  O          7.2200  -22.2570    2.8370 O.3  3137  WAT3137    -0.4105
   9407  H1         7.2110  -21.5240    2.2220 H    3137  WAT3137     0.2052
   9408  H2         6.2990  -22.5040    2.9300 H    3137  WAT3137     0.2052
   9409  O          2.8200  -27.0350    3.5820 O.3  3138  WAT3138    -0.4105
   9410  H1         2.2130  -26.2950    3.5920 H    3138  WAT3138     0.2052
   9411  H2         3.2950  -26.9450    2.7560 H    3138  WAT3138     0.2052
   9412  O         10.2050  -22.1940    1.5000 O.3  3139  WAT3139    -0.4105
   9413  H1        10.3070  -22.3980    0.5700 H    3139  WAT3139     0.2052
   9414  H2         9.3060  -22.4480    1.7050 H    3139  WAT3139     0.2052
   9415  O          8.8470  -19.6750    6.1950 O.3  3140  WAT3140    -0.4105
   9416  H1         9.1010  -19.7130    5.2730 H    3140  WAT3140     0.2052
   9417  H2         7.8990  -19.8020    6.1870 H    3140  WAT3140     0.2052
   9418  O         14.8530  -28.7560    7.7700 O.3  3141  WAT3141    -0.4105
   9419  H1        13.9120  -28.7410    7.9450 H    3141  WAT3141     0.2052
   9420  H2        15.1670  -29.5430    8.2170 H    3141  WAT3141     0.2052
   9421  O          4.8310  -27.0740    1.3310 O.3  3142  WAT3142    -0.4105
   9422  H1         5.5970  -27.1860    1.8930 H    3142  WAT3142     0.2052
   9423  H2         4.9080  -27.7700    0.6790 H    3142  WAT3142     0.2052
   9424  O         16.8550  -21.5850    9.4460 O.3  3143  WAT3143    -0.4105
   9425  H1        16.9800  -20.7620    9.9180 H    3143  WAT3143     0.2052
   9426  H2        17.7220  -21.7960    9.0980 H    3143  WAT3143     0.2052
   9427  O          4.3270  -19.4920    9.1180 O.3  3144  WAT3144    -0.4105
   9428  H1         5.0630  -20.0410    9.3880 H    3144  WAT3144     0.2052
   9429  H2         4.7110  -18.6270    8.9780 H    3144  WAT3144     0.2052
   9430  O          1.2110  -23.4250    4.9920 O.3  3145  WAT3145    -0.4105
   9431  H1         0.2850  -23.1830    4.9820 H    3145  WAT3145     0.2052
   9432  H2         1.6770  -22.5970    4.8700 H    3145  WAT3145     0.2052
   9433  O          3.3330  -20.3070   18.3060 O.3  3146  WAT3146    -0.4105
   9434  H1         4.1340  -19.9860   18.7200 H    3146  WAT3146     0.2052
   9435  H2         2.8180  -20.6680   19.0280 H    3146  WAT3146     0.2052
   9436  O          7.4370  -20.3190    0.9400 O.3  3147  WAT3147    -0.4105
   9437  H1         8.2300  -20.0300    0.4880 H    3147  WAT3147     0.2052
   9438  H2         6.9180  -20.7500    0.2610 H    3147  WAT3147     0.2052
   9439  O         12.1690  -24.2000   18.2540 O.3  3148  WAT3148    -0.4105
   9440  H1        11.5630  -24.1760   17.5130 H    3148  WAT3148     0.2052
   9441  H2        11.8650  -24.9310   18.7900 H    3148  WAT3148     0.2052
   9442  O         13.5990  -20.4710   16.8650 O.3  3149  WAT3149    -0.4105
   9443  H1        14.5510  -20.5560   16.8150 H    3149  WAT3149     0.2052
   9444  H2        13.4520  -19.8070   17.5380 H    3149  WAT3149     0.2052
   9445  O         16.4900  -21.0920    2.3640 O.3  3150  WAT3150    -0.4105
   9446  H1        16.2040  -21.5060    1.5490 H    3150  WAT3150     0.2052
   9447  H2        16.2920  -20.1630    2.2440 H    3150  WAT3150     0.2052
   9448  O          1.0520  -27.8200   17.2500 O.3  3151  WAT3151    -0.4105
   9449  H1         1.5560  -28.3990   17.8210 H    3151  WAT3151     0.2052
   9450  H2         0.3130  -27.5360   17.7870 H    3151  WAT3151     0.2052
   9451  O          7.9550  -25.0990    0.8040 O.3  3152  WAT3152    -0.4105
   9452  H1         7.8500  -25.7130    1.5310 H    3152  WAT3152     0.2052
   9453  H2         7.7870  -25.6220    0.0210 H    3152  WAT3152     0.2052
   9454  O          8.1060  -26.4130   16.7830 O.3  3153  WAT3153    -0.4105
   9455  H1         7.3410  -25.8450   16.6990 H    3153  WAT3153     0.2052
   9456  H2         8.2880  -26.7050   15.8900 H    3153  WAT3153     0.2052
   9457  O         11.1950  -26.0370    1.4090 O.3  3154  WAT3154    -0.4105
   9458  H1        10.6460  -25.5900    2.0530 H    3154  WAT3154     0.2052
   9459  H2        11.8170  -26.5420    1.9320 H    3154  WAT3154     0.2052
   9460  O         15.2490  -24.6830   17.3410 O.3  3155  WAT3155    -0.4105
   9461  H1        15.9900  -24.3450   16.8380 H    3155  WAT3155     0.2052
   9462  H2        14.4860  -24.5130   16.7880 H    3155  WAT3155     0.2052
   9463  O          3.0850  -29.6770   18.1450 O.3  3156  WAT3156    -0.4105
   9464  H1         3.1250  -29.9760   19.0530 H    3156  WAT3156     0.2052
   9465  H2         3.9390  -29.2760   17.9860 H    3156  WAT3156     0.2052
   9466  O          6.8630  -27.0780    3.3050 O.3  3157  WAT3157    -0.4105
   9467  H1         7.2840  -27.2440    4.1480 H    3157  WAT3157     0.2052
   9468  H2         6.9880  -27.8880    2.8110 H    3157  WAT3157     0.2052
   9469  O          9.3750  -28.0540    0.5530 O.3  3158  WAT3158    -0.4105
   9470  H1         9.8960  -28.7690    0.1870 H    3158  WAT3158     0.2052
   9471  H2        10.0220  -27.4150    0.8530 H    3158  WAT3158     0.2052
   9472  O         13.9230  -26.6310   15.8760 O.3  3159  WAT3159    -0.4105
   9473  H1        14.3370  -26.4770   16.7250 H    3159  WAT3159     0.2052
   9474  H2        12.9880  -26.5060   16.0390 H    3159  WAT3159     0.2052
   9475  O         14.3950  -29.2910   17.8800 O.3  3160  WAT3160    -0.4105
   9476  H1        14.9770  -30.0460   17.7920 H    3160  WAT3160     0.2052
   9477  H2        14.5720  -28.7610   17.1030 H    3160  WAT3160     0.2052
   9478  O          8.6850  -26.6790   13.8460 O.3  3161  WAT3161    -0.4105
   9479  H1         9.1030  -25.8360   13.6740 H    3161  WAT3161     0.2052
   9480  H2         7.7660  -26.5420   13.6170 H    3161  WAT3161     0.2052
   9481  O         11.0210  -28.9470   15.2300 O.3  3162  WAT3162    -0.4105
   9482  H1        11.1410  -29.5430   15.9690 H    3162  WAT3162     0.2052
   9483  H2        11.8800  -28.9100   14.8100 H    3162  WAT3162     0.2052
   9484  O         13.3600  -28.3940   13.8060 O.3  3163  WAT3163    -0.4105
   9485  H1        12.8330  -27.8690   13.2030 H    3163  WAT3163     0.2052
   9486  H2        13.7030  -27.7610   14.4370 H    3163  WAT3163     0.2052
   9487  O          6.5350  -20.3740   14.9620 O.3  3164  WAT3164    -0.4105
   9488  H1         5.9980  -19.6490   14.6430 H    3164  WAT3164     0.2052
   9489  H2         6.7890  -20.8510   14.1710 H    3164  WAT3164     0.2052
   9490  O          9.3920  -19.1390   15.2200 O.3  3165  WAT3165    -0.4105
   9491  H1         9.3180  -18.2350   15.5280 H    3165  WAT3165     0.2052
   9492  H2         8.4900  -19.4570   15.1930 H    3165  WAT3165     0.2052
   9493  O          9.9400  -19.9730    2.8430 O.3  3166  WAT3166    -0.4105
   9494  H1        10.8350  -19.6340    2.8650 H    3166  WAT3166     0.2052
   9495  H2         9.9720  -20.6950    2.2150 H    3166  WAT3166     0.2052
   9496  O          3.5800  -24.6000    1.0720 O.3  3167  WAT3167    -0.4105
   9497  H1         4.0170  -24.0570    1.7270 H    3167  WAT3167     0.2052
   9498  H2         4.0650  -25.4250    1.0810 H    3167  WAT3167     0.2052
   9499  O          0.7940  -21.8110    8.5240 O.3  3168  WAT3168    -0.4105
   9500  H1         1.1250  -22.6790    8.2920 H    3168  WAT3168     0.2052
   9501  H2         1.2230  -21.6050    9.3540 H    3168  WAT3168     0.2052
   9502  O          5.3910  -23.4800    6.1840 O.3  3169  WAT3169    -0.4105
   9503  H1         5.0900  -23.6040    7.0840 H    3169  WAT3169     0.2052
   9504  H2         5.2840  -24.3390    5.7760 H    3169  WAT3169     0.2052
   9505  O          1.2830  -20.9440   11.2620 O.3  3170  WAT3170    -0.4105
   9506  H1         0.8460  -20.7640   12.0940 H    3170  WAT3170     0.2052
   9507  H2         1.8510  -20.1870   11.1200 H    3170  WAT3170     0.2052
   9508  O         16.9200  -21.4420   15.5500 O.3  3171  WAT3171    -0.4105
   9509  H1        16.3200  -21.3830   14.8060 H    3171  WAT3171     0.2052
   9510  H2        17.0490  -22.3820   15.6790 H    3171  WAT3171     0.2052
   9511  O         18.1600  -23.7010    0.8870 O.3  3172  WAT3172    -0.4105
   9512  H1        17.3290  -23.6330    1.3570 H    3172  WAT3172     0.2052
   9513  H2        18.3370  -22.8100    0.5830 H    3172  WAT3172     0.2052
   9514  O         17.6150  -26.9560    3.3900 O.3  3173  WAT3173    -0.4105
   9515  H1        18.3770  -26.3860    3.4960 H    3173  WAT3173     0.2052
   9516  H2        17.6310  -27.5230    4.1610 H    3173  WAT3173     0.2052
   9517  O          1.1160  -28.4320    7.6210 O.3  3174  WAT3174    -0.4105
   9518  H1         0.4610  -28.7010    6.9770 H    3174  WAT3174     0.2052
   9519  H2         1.9540  -28.5420    7.1710 H    3174  WAT3174     0.2052
   9520  O         18.6210  -26.1010    8.2340 O.3  3175  WAT3175    -0.4105
   9521  H1        18.9920  -26.8840    7.8280 H    3175  WAT3175     0.2052
   9522  H2        19.2620  -25.4120    8.0560 H    3175  WAT3175     0.2052
   9523  O         15.6050  -24.7170   13.6470 O.3  3176  WAT3176    -0.4105
   9524  H1        14.7910  -24.2870   13.9100 H    3176  WAT3176     0.2052
   9525  H2        16.0120  -24.1050   13.0340 H    3176  WAT3176     0.2052
   9526  O         17.6670  -26.6620    0.5470 O.3  3177  WAT3177    -0.4105
   9527  H1        17.9420  -25.7540    0.4190 H    3177  WAT3177     0.2052
   9528  H2        17.4780  -26.7260    1.4830 H    3177  WAT3177     0.2052
   9529  O         17.5640  -28.7250    5.5400 O.3  3178  WAT3178    -0.4105
   9530  H1        17.1880  -29.4930    5.1080 H    3178  WAT3178     0.2052
   9531  H2        16.8340  -28.3430    6.0280 H    3178  WAT3178     0.2052
   9532  O          2.1530  -28.0470   12.1610 O.3  3179  WAT3179    -0.4105
   9533  H1         2.5210  -28.1340   13.0410 H    3179  WAT3179     0.2052
   9534  H2         1.5850  -28.8100   12.0620 H    3179  WAT3179     0.2052
   9535  O         16.9540  -29.5780   15.1740 O.3  3180  WAT3180    -0.4105
   9536  H1        16.7220  -29.8070   14.2740 H    3180  WAT3180     0.2052
   9537  H2        17.2140  -28.6580   15.1290 H    3180  WAT3180     0.2052
   9538  O         15.6620  -19.9650    7.1740 O.3  3181  WAT3181    -0.4105
   9539  H1        16.2580  -20.2870    6.4980 H    3181  WAT3181     0.2052
   9540  H2        15.9200  -20.4380    7.9650 H    3181  WAT3181     0.2052
   9541  O          3.5690  -23.5330   17.3230 O.3  3182  WAT3182    -0.4105
   9542  H1         3.5260  -23.9040   18.2050 H    3182  WAT3182     0.2052
   9543  H2         3.7000  -22.5960   17.4630 H    3182  WAT3182     0.2052
   9544  O          7.2690  -21.9780   12.9240 O.3  3183  WAT3183    -0.4105
   9545  H1         7.0280  -21.7100   12.0370 H    3183  WAT3183     0.2052
   9546  H2         8.2100  -21.8070   12.9790 H    3183  WAT3183     0.2052
   9547  O         18.5300  -19.9580   13.7250 O.3  3184  WAT3184    -0.4105
   9548  H1        18.0350  -19.5610   13.0080 H    3184  WAT3184     0.2052
   9549  H2        17.9210  -20.5830   14.1190 H    3184  WAT3184     0.2052
   9550  O          3.4070  -20.5870   14.4430 O.3  3185  WAT3185    -0.4105
   9551  H1         2.8130  -20.7190   15.1820 H    3185  WAT3185     0.2052
   9552  H2         3.4000  -21.4230   13.9770 H    3185  WAT3185     0.2052
   9553  O         16.2140  -19.3160   11.0040 O.3  3186  WAT3186    -0.4105
   9554  H1        15.7540  -18.5640   10.6300 H    3186  WAT3186     0.2052
   9555  H2        15.5850  -20.0350   10.9450 H    3186  WAT3186     0.2052
   9556  O          3.0390  -23.2210   13.3940 O.3  3187  WAT3187    -0.4105
   9557  H1         2.3120  -23.8410   13.3260 H    3187  WAT3187     0.2052
   9558  H2         3.1000  -22.8270   12.5240 H    3187  WAT3187     0.2052
   9559  O          6.6430  -21.0070   10.1790 O.3  3188  WAT3188    -0.4105
   9560  H1         7.1600  -21.6180    9.6540 H    3188  WAT3188     0.2052
   9561  H2         7.2930  -20.5040   10.6700 H    3188  WAT3188     0.2052
   9562  O          9.3830  -20.1160   11.0060 O.3  3189  WAT3189    -0.4105
   9563  H1         9.6710  -20.3710   10.1290 H    3189  WAT3189     0.2052
   9564  H2         9.8950  -20.6680   11.5960 H    3189  WAT3189     0.2052
   9565  O          1.3220  -19.9040    6.6030 O.3  3190  WAT3190    -0.4105
   9566  H1         1.1540  -20.5370    7.3020 H    3190  WAT3190     0.2052
   9567  H2         0.4550  -19.6980    6.2530 H    3190  WAT3190     0.2052
   9568  O          2.9280  -21.2110    4.0480 O.3  3191  WAT3191    -0.4105
   9569  H1         2.4030  -20.8300    3.3450 H    3191  WAT3191     0.2052
   9570  H2         2.8520  -20.5860    4.7690 H    3191  WAT3191     0.2052
   9571  O          9.4500  -19.1940   18.3720 O.3  3192  WAT3192    -0.4105
   9572  H1        10.3770  -19.4300   18.4160 H    3192  WAT3192     0.2052
   9573  H2         9.4350  -18.3670   17.8910 H    3192  WAT3192     0.2052
   9574  O         17.6840  -19.6520    5.3700 O.3  3193  WAT3193    -0.4105
   9575  H1        17.8600  -20.3380    4.7260 H    3193  WAT3193     0.2052
   9576  H2        16.9870  -19.1270    4.9770 H    3193  WAT3193     0.2052
   9577  O          5.5270  -19.2620    2.9230 O.3  3194  WAT3194    -0.4105
   9578  H1         6.2590  -19.5470    2.3760 H    3194  WAT3194     0.2052
   9579  H2         5.7870  -19.5010    3.8130 H    3194  WAT3194     0.2052
   9580  O          4.6890  -23.1460    2.9280 O.3  3195  WAT3195    -0.4105
   9581  H1         4.0600  -22.6770    3.4770 H    3195  WAT3195     0.2052
   9582  H2         4.8030  -23.9910    3.3630 H    3195  WAT3195     0.2052
   9583  O         16.0180  -19.9670   18.1960 O.3  3196  WAT3196    -0.4105
   9584  H1        16.8100  -20.4630   17.9890 H    3196  WAT3196     0.2052
   9585  H2        16.3110  -19.2880   18.8040 H    3196  WAT3196     0.2052
   9586  O         12.1440  -29.0950  -10.9220 O.3  3197  WAT3197    -0.4105
   9587  H1        12.0630  -30.0100  -11.1930 H    3197  WAT3197     0.2052
   9588  H2        11.7300  -28.5990  -11.6280 H    3197  WAT3197     0.2052
   9589  O         10.2750  -27.3170   -9.0410 O.3  3198  WAT3198    -0.4105
   9590  H1         9.5000  -27.7970   -8.7510 H    3198  WAT3198     0.2052
   9591  H2        10.9270  -27.9970   -9.2150 H    3198  WAT3198     0.2052
   9592  O          4.2920  -27.0060   -8.1630 O.3  3199  WAT3199    -0.4105
   9593  H1         3.4610  -27.2610   -7.7640 H    3199  WAT3199     0.2052
   9594  H2         4.9000  -26.9340   -7.4280 H    3199  WAT3199     0.2052
   9595  O         14.2960  -22.9110  -10.2610 O.3  3200  WAT3200    -0.4105
   9596  H1        13.8340  -23.6830   -9.9320 H    3200  WAT3200     0.2052
   9597  H2        15.1090  -22.8850   -9.7560 H    3200  WAT3200     0.2052
   9598  O          4.2720  -22.9720   -7.9680 O.3  3201  WAT3201    -0.4105
   9599  H1         4.5750  -23.8620   -8.1470 H    3201  WAT3201     0.2052
   9600  H2         5.0170  -22.4140   -8.1950 H    3201  WAT3201     0.2052
   9601  O         10.5230  -20.6260  -10.6410 O.3  3202  WAT3202    -0.4105
   9602  H1         9.9040  -20.1700  -11.2110 H    3202  WAT3202     0.2052
   9603  H2        11.3780  -20.4710  -11.0420 H    3202  WAT3202     0.2052
   9604  O          9.7160  -24.6420   -9.0340 O.3  3203  WAT3203    -0.4105
   9605  H1         9.6470  -25.5830   -9.1950 H    3203  WAT3203     0.2052
   9606  H2        10.4780  -24.5520   -8.4620 H    3203  WAT3203     0.2052
   9607  O         11.3890  -25.7420  -13.2470 O.3  3204  WAT3204    -0.4105
   9608  H1        10.7710  -25.2770  -13.8110 H    3204  WAT3204     0.2052
   9609  H2        11.9010  -25.0490  -12.8310 H    3204  WAT3204     0.2052
   9610  O          6.2520  -26.2140   -6.5690 O.3  3205  WAT3205    -0.4105
   9611  H1         5.9190  -25.5870   -5.9270 H    3205  WAT3205     0.2052
   9612  H2         6.4290  -25.6880   -7.3490 H    3205  WAT3205     0.2052
   9613  O          5.4640  -24.2460   -4.7540 O.3  3206  WAT3206    -0.4105
   9614  H1         6.0810  -23.5710   -5.0360 H    3206  WAT3206     0.2052
   9615  H2         4.6030  -23.8370   -4.8450 H    3206  WAT3206     0.2052
   9616  O          0.7570  -25.0560  -15.8740 O.3  3207  WAT3207    -0.4105
   9617  H1         0.3800  -24.5670  -16.6050 H    3207  WAT3207     0.2052
   9618  H2         1.0150  -24.3840  -15.2430 H    3207  WAT3207     0.2052
   9619  O         16.3820  -22.7820   -6.8390 O.3  3208  WAT3208    -0.4105
   9620  H1        15.6980  -22.1120   -6.8470 H    3208  WAT3208     0.2052
   9621  H2        16.9210  -22.5840   -7.6040 H    3208  WAT3208     0.2052
   9622  O         13.9180  -20.9380   -8.1240 O.3  3209  WAT3209    -0.4105
   9623  H1        13.9300  -21.3420   -8.9920 H    3209  WAT3209     0.2052
   9624  H2        13.3650  -20.1630   -8.2280 H    3209  WAT3209     0.2052
   9625  O         15.2120  -24.2160  -13.0350 O.3  3210  WAT3210    -0.4105
   9626  H1        15.1020  -25.1590  -12.9100 H    3210  WAT3210     0.2052
   9627  H2        15.2090  -23.8550  -12.1490 H    3210  WAT3210     0.2052
   9628  O         13.3160  -26.0350   -6.7960 O.3  3211  WAT3211    -0.4105
   9629  H1        13.7330  -26.2490   -7.6310 H    3211  WAT3211     0.2052
   9630  H2        14.0400  -25.7770   -6.2250 H    3211  WAT3211     0.2052
   9631  O         10.7540  -28.5900  -13.6790 O.3  3212  WAT3212    -0.4105
   9632  H1         9.8270  -28.6560  -13.4500 H    3212  WAT3212     0.2052
   9633  H2        10.9070  -27.6520  -13.7930 H    3212  WAT3212     0.2052
   9634  O         17.2620  -27.6360   -6.7040 O.3  3213  WAT3213    -0.4105
   9635  H1        16.4340  -27.5670   -7.1790 H    3213  WAT3213     0.2052
   9636  H2        17.8570  -27.0510   -7.1730 H    3213  WAT3213     0.2052
   9637  O         14.7840  -27.0280  -13.1750 O.3  3214  WAT3214    -0.4105
   9638  H1        14.1650  -27.3660  -13.8230 H    3214  WAT3214     0.2052
   9639  H2        14.7660  -27.6720  -12.4670 H    3214  WAT3214     0.2052
   9640  O          6.3600  -28.0630  -10.8970 O.3  3215  WAT3215    -0.4105
   9641  H1         5.9560  -28.7750  -11.3920 H    3215  WAT3215     0.2052
   9642  H2         6.4460  -28.4080  -10.0080 H    3215  WAT3215     0.2052
   9643  O          6.8280  -24.3760   -8.7330 O.3  3216  WAT3216    -0.4105
   9644  H1         6.5310  -24.9820   -9.4120 H    3216  WAT3216     0.2052
   9645  H2         7.7780  -24.3390   -8.8440 H    3216  WAT3216     0.2052
   9646  O         14.9170  -20.8030   -5.0710 O.3  3217  WAT3217    -0.4105
   9647  H1        14.4400  -19.9960   -5.2630 H    3217  WAT3217     0.2052
   9648  H2        14.2330  -21.4550   -4.9180 H    3217  WAT3217     0.2052
   9649  O          5.9200  -24.6380   -2.0820 O.3  3218  WAT3218    -0.4105
   9650  H1         5.0230  -24.4140   -1.8350 H    3218  WAT3218     0.2052
   9651  H2         5.9450  -24.5150   -3.0310 H    3218  WAT3218     0.2052
   9652  O         12.9600  -27.7890  -16.1680 O.3  3219  WAT3219    -0.4105
   9653  H1        13.4000  -28.6270  -16.3140 H    3219  WAT3219     0.2052
   9654  H2        13.6730  -27.1560  -16.0820 H    3219  WAT3219     0.2052
   9655  O          4.7470  -27.7670   -3.5070 O.3  3220  WAT3220    -0.4105
   9656  H1         4.6080  -26.8950   -3.1380 H    3220  WAT3220     0.2052
   9657  H2         3.8650  -28.1100   -3.6520 H    3220  WAT3220     0.2052
   9658  O         11.0700  -22.8490  -12.2000 O.3  3221  WAT3221    -0.4105
   9659  H1        11.5100  -22.1070  -12.6140 H    3221  WAT3221     0.2052
   9660  H2        11.0090  -22.6070  -11.2760 H    3221  WAT3221     0.2052
   9661  O          6.5450  -21.8250   -1.2980 O.3  3222  WAT3222    -0.4105
   9662  H1         6.5170  -21.4200   -2.1650 H    3222  WAT3222     0.2052
   9663  H2         6.3820  -22.7540   -1.4610 H    3222  WAT3222     0.2052
   9664  O          3.0600  -29.1690  -13.3960 O.3  3223  WAT3223    -0.4105
   9665  H1         2.9400  -28.4420  -14.0080 H    3223  WAT3223     0.2052
   9666  H2         2.7500  -29.9380  -13.8740 H    3223  WAT3223     0.2052
   9667  O         18.4970  -21.0420   -0.0020 O.3  3224  WAT3224    -0.4105
   9668  H1        18.9720  -20.5640    0.6770 H    3224  WAT3224     0.2052
   9669  H2        19.1170  -21.1100   -0.7270 H    3224  WAT3224     0.2052
   9670  O          0.6990  -25.9970   -7.5890 O.3  3225  WAT3225    -0.4105
   9671  H1         0.7770  -25.8620   -8.5340 H    3225  WAT3225     0.2052
   9672  H2         1.3130  -26.7060   -7.3970 H    3225  WAT3225     0.2052
   9673  O          1.9440  -24.2970  -11.1790 O.3  3226  WAT3226    -0.4105
   9674  H1         1.5360  -24.1560  -12.0330 H    3226  WAT3226     0.2052
   9675  H2         2.8350  -24.5810  -11.3820 H    3226  WAT3226     0.2052
   9676  O         17.9000  -23.8510   -2.8420 O.3  3227  WAT3227    -0.4105
   9677  H1        18.0260  -24.0890   -3.7600 H    3227  WAT3227     0.2052
   9678  H2        17.9420  -24.6820   -2.3690 H    3227  WAT3227     0.2052
   9679  O         11.7620  -20.1480   -4.2720 O.3  3228  WAT3228    -0.4105
   9680  H1        12.2760  -20.2370   -3.4700 H    3228  WAT3228     0.2052
   9681  H2        10.9180  -19.8020   -3.9790 H    3228  WAT3228     0.2052
   9682  O         13.7370  -19.8620  -14.8440 O.3  3229  WAT3229    -0.4105
   9683  H1        13.5770  -20.1520  -13.9460 H    3229  WAT3229     0.2052
   9684  H2        13.5720  -20.6380  -15.3790 H    3229  WAT3229     0.2052
   9685  O          6.2160  -20.0820  -13.0670 O.3  3230  WAT3230    -0.4105
   9686  H1         6.0400  -20.9990  -13.2800 H    3230  WAT3230     0.2052
   9687  H2         5.3610  -19.7240  -12.8270 H    3230  WAT3230     0.2052
   9688  O         13.4400  -22.3540  -16.2840 O.3  3231  WAT3231    -0.4105
   9689  H1        12.7460  -22.3560  -16.9440 H    3231  WAT3231     0.2052
   9690  H2        14.1820  -22.7780  -16.7140 H    3231  WAT3231     0.2052
   9691  O         13.0050  -20.7270  -12.2090 O.3  3232  WAT3232    -0.4105
   9692  H1        13.4600  -21.5080  -11.8950 H    3232  WAT3232     0.2052
   9693  H2        13.3440  -20.0170  -11.6650 H    3232  WAT3232     0.2052
   9694  O          0.7550  -24.9560   -5.0500 O.3  3233  WAT3233    -0.4105
   9695  H1         0.9180  -25.4250   -5.8680 H    3233  WAT3233     0.2052
   9696  H2         1.2200  -25.4630   -4.3850 H    3233  WAT3233     0.2052
   9697  O          7.2520  -29.4820  -16.7670 O.3  3234  WAT3234    -0.4105
   9698  H1         6.6830  -29.9300  -17.3930 H    3234  WAT3234     0.2052
   9699  H2         7.9610  -29.1220  -17.3010 H    3234  WAT3234     0.2052
   9700  O          2.3290  -25.5810   -2.8900 O.3  3235  WAT3235    -0.4105
   9701  H1         1.9440  -26.2210   -2.2920 H    3235  WAT3235     0.2052
   9702  H2         2.6400  -24.8770   -2.3210 H    3235  WAT3235     0.2052
   9703  O          8.4780  -28.7330   -7.4100 O.3  3236  WAT3236    -0.4105
   9704  H1         8.8450  -29.2070   -6.6630 H    3236  WAT3236     0.2052
   9705  H2         8.2890  -27.8590   -7.0690 H    3236  WAT3236     0.2052
   9706  O          6.2680  -29.6920   -5.0910 O.3  3237  WAT3237    -0.4105
   9707  H1         5.9640  -28.8130   -4.8660 H    3237  WAT3237     0.2052
   9708  H2         7.2230  -29.6320   -5.0550 H    3237  WAT3237     0.2052
   9709  O          4.7970  -25.4860  -14.4940 O.3  3238  WAT3238    -0.4105
   9710  H1         4.0230  -26.0260  -14.6550 H    3238  WAT3238     0.2052
   9711  H2         5.5260  -26.0050  -14.8330 H    3238  WAT3238     0.2052
   9712  O         15.5550  -26.4890   -8.7020 O.3  3239  WAT3239    -0.4105
   9713  H1        16.2750  -25.9940   -9.0920 H    3239  WAT3239     0.2052
   9714  H2        15.3540  -27.1680   -9.3460 H    3239  WAT3239     0.2052
   9715  O         10.9370  -26.4180   -2.8150 O.3  3240  WAT3240    -0.4105
   9716  H1        10.8710  -27.3390   -3.0690 H    3240  WAT3240     0.2052
   9717  H2        10.3080  -26.3210   -2.1000 H    3240  WAT3240     0.2052
   9718  O          4.8400  -25.8180  -10.8570 O.3  3241  WAT3241    -0.4105
   9719  H1         5.3580  -26.6210  -10.9110 H    3241  WAT3241     0.2052
   9720  H2         4.3890  -25.8800  -10.0150 H    3241  WAT3241     0.2052
   9721  O          9.7270  -24.5510  -15.5840 O.3  3242  WAT3242    -0.4105
   9722  H1        10.0690  -23.8070  -16.0790 H    3242  WAT3242     0.2052
   9723  H2         8.8980  -24.2380  -15.2210 H    3242  WAT3242     0.2052
   9724  O          2.3250  -28.8520   -3.9440 O.3  3243  WAT3243    -0.4105
   9725  H1         1.9660  -28.1860   -3.3570 H    3243  WAT3243     0.2052
   9726  H2         2.0300  -29.6830   -3.5730 H    3243  WAT3243     0.2052
   9727  O          5.5260  -28.3930   -1.0600 O.3  3244  WAT3244    -0.4105
   9728  H1         5.2260  -28.2480   -1.9570 H    3244  WAT3244     0.2052
   9729  H2         6.2970  -28.9530   -1.1530 H    3244  WAT3244     0.2052
   9730  O         10.8690  -23.5960   -3.0650 O.3  3245  WAT3245    -0.4105
   9731  H1        10.8830  -24.5280   -3.2830 H    3245  WAT3245     0.2052
   9732  H2        10.1610  -23.5100   -2.4260 H    3245  WAT3245     0.2052
   9733  O         16.0030  -29.4120  -16.7950 O.3  3246  WAT3246    -0.4105
   9734  H1        15.9190  -28.9810  -17.6450 H    3246  WAT3246     0.2052
   9735  H2        16.7220  -28.9530  -16.3620 H    3246  WAT3246     0.2052
   9736  O         17.0800  -26.9560   -3.7180 O.3  3247  WAT3247    -0.4105
   9737  H1        16.3550  -26.3630   -3.9150 H    3247  WAT3247     0.2052
   9738  H2        17.6080  -26.9630   -4.5160 H    3247  WAT3247     0.2052
   9739  O         17.0310  -22.5580  -14.0660 O.3  3248  WAT3248    -0.4105
   9740  H1        16.3890  -23.2130  -13.7920 H    3248  WAT3248     0.2052
   9741  H2        16.6440  -22.1530  -14.8420 H    3248  WAT3248     0.2052
   9742  O         12.6100  -25.2300  -10.2190 O.3  3249  WAT3249    -0.4105
   9743  H1        12.9620  -25.8270  -10.8790 H    3249  WAT3249     0.2052
   9744  H2        11.7260  -25.5550  -10.0480 H    3249  WAT3249     0.2052
   9745  O          8.6960  -24.4700  -12.8120 O.3  3250  WAT3250    -0.4105
   9746  H1         9.3830  -23.9230  -12.4310 H    3250  WAT3250     0.2052
   9747  H2         7.9100  -23.9260  -12.7770 H    3250  WAT3250     0.2052
   9748  O          0.8360  -28.8530  -17.3210 O.3  3251  WAT3251    -0.4105
   9749  H1         1.7050  -28.5700  -17.0370 H    3251  WAT3251     0.2052
   9750  H2         0.3450  -28.0390  -17.4360 H    3251  WAT3251     0.2052
   9751  O          7.9990  -27.4650  -13.2000 O.3  3252  WAT3252    -0.4105
   9752  H1         8.4550  -26.6550  -12.9740 H    3252  WAT3252     0.2052
   9753  H2         7.6480  -27.7830  -12.3680 H    3252  WAT3252     0.2052
   9754  O         10.3020  -21.9550   -5.9700 O.3  3253  WAT3253    -0.4105
   9755  H1        10.9460  -21.7490   -5.2930 H    3253  WAT3253     0.2052
   9756  H2        10.6650  -22.7160   -6.4230 H    3253  WAT3253     0.2052
   9757  O         11.5750  -23.9510   -7.2530 O.3  3254  WAT3254    -0.4105
   9758  H1        12.2180  -24.6520   -7.1400 H    3254  WAT3254     0.2052
   9759  H2        12.1000  -23.1720   -7.4330 H    3254  WAT3254     0.2052
   9760  O         15.4210  -23.6670  -17.5290 O.3  3255  WAT3255    -0.4105
   9761  H1        15.1950  -24.3840  -16.9360 H    3255  WAT3255     0.2052
   9762  H2        15.0310  -23.9150  -18.3670 H    3255  WAT3255     0.2052
   9763  O         13.3490  -23.1520   -4.0490 O.3  3256  WAT3256    -0.4105
   9764  H1        13.6850  -22.5650   -3.3710 H    3256  WAT3256     0.2052
   9765  H2        12.4290  -23.2830   -3.8190 H    3256  WAT3256     0.2052
   9766  O          1.2030  -19.6400  -16.7540 O.3  3257  WAT3257    -0.4105
   9767  H1         1.5620  -19.0410  -17.4090 H    3257  WAT3257     0.2052
   9768  H2         1.0620  -19.0940  -15.9810 H    3257  WAT3257     0.2052
   9769  O         15.0030  -25.7490  -15.8670 O.3  3258  WAT3258    -0.4105
   9770  H1        14.7150  -25.2880  -15.0800 H    3258  WAT3258     0.2052
   9771  H2        15.7980  -26.2100  -15.5990 H    3258  WAT3258     0.2052
   9772  O          1.1870  -21.3740   -2.2800 O.3  3259  WAT3259    -0.4105
   9773  H1         1.2960  -22.3150   -2.4210 H    3259  WAT3259     0.2052
   9774  H2         0.5350  -21.1090   -2.9290 H    3259  WAT3259     0.2052
   9775  O          9.1780  -23.1030   -0.8800 O.3  3260  WAT3260    -0.4105
   9776  H1         8.8580  -23.8220   -0.3360 H    3260  WAT3260     0.2052
   9777  H2         8.5040  -22.4270   -0.8070 H    3260  WAT3260     0.2052
   9778  O          7.2200  -22.2570  -15.9370 O.3  3261  WAT3261    -0.4105
   9779  H1         7.2110  -21.5240  -16.5530 H    3261  WAT3261     0.2052
   9780  H2         6.2990  -22.5040  -15.8440 H    3261  WAT3261     0.2052
   9781  O          2.8200  -27.0350  -15.1920 O.3  3262  WAT3262    -0.4105
   9782  H1         2.2130  -26.2950  -15.1830 H    3262  WAT3262     0.2052
   9783  H2         3.2950  -26.9450  -16.0190 H    3262  WAT3262     0.2052
   9784  O         10.2050  -22.1940  -17.2740 O.3  3263  WAT3263    -0.4105
   9785  H1        10.3070  -22.3980  -18.2040 H    3263  WAT3263     0.2052
   9786  H2         9.3060  -22.4480  -17.0700 H    3263  WAT3263     0.2052
   9787  O          8.8470  -19.6750  -12.5800 O.3  3264  WAT3264    -0.4105
   9788  H1         9.1010  -19.7130  -13.5020 H    3264  WAT3264     0.2052
   9789  H2         7.8990  -19.8020  -12.5870 H    3264  WAT3264     0.2052
   9790  O         14.8530  -28.7560  -11.0040 O.3  3265  WAT3265    -0.4105
   9791  H1        13.9120  -28.7410  -10.8290 H    3265  WAT3265     0.2052
   9792  H2        15.1670  -29.5430  -10.5580 H    3265  WAT3265     0.2052
   9793  O          4.8310  -27.0740  -17.4430 O.3  3266  WAT3266    -0.4105
   9794  H1         5.5970  -27.1860  -16.8810 H    3266  WAT3266     0.2052
   9795  H2         4.9080  -27.7700  -18.0960 H    3266  WAT3266     0.2052
   9796  O         16.8550  -21.5850   -9.3280 O.3  3267  WAT3267    -0.4105
   9797  H1        16.9800  -20.7620   -8.8560 H    3267  WAT3267     0.2052
   9798  H2        17.7220  -21.7960   -9.6760 H    3267  WAT3267     0.2052
   9799  O          4.3270  -19.4920   -9.6570 O.3  3268  WAT3268    -0.4105
   9800  H1         5.0630  -20.0410   -9.3860 H    3268  WAT3268     0.2052
   9801  H2         4.7110  -18.6270   -9.7960 H    3268  WAT3268     0.2052
   9802  O          1.2110  -23.4250  -13.7830 O.3  3269  WAT3269    -0.4105
   9803  H1         0.2850  -23.1830  -13.7920 H    3269  WAT3269     0.2052
   9804  H2         1.6770  -22.5970  -13.9040 H    3269  WAT3269     0.2052
   9805  O          3.3330  -20.3070   -0.4680 O.3  3270  WAT3270    -0.4105
   9806  H1         4.1340  -19.9860   -0.0550 H    3270  WAT3270     0.2052
   9807  H2         2.8180  -20.6680    0.2540 H    3270  WAT3270     0.2052
   9808  O          7.4370  -20.3190  -17.8340 O.3  3271  WAT3271    -0.4105
   9809  H1         8.2300  -20.0300  -18.2860 H    3271  WAT3271     0.2052
   9810  H2         6.9180  -20.7500  -18.5130 H    3271  WAT3271     0.2052
   9811  O         12.1690  -24.2000   -0.5210 O.3  3272  WAT3272    -0.4105
   9812  H1        11.5630  -24.1760   -1.2610 H    3272  WAT3272     0.2052
   9813  H2        11.8650  -24.9310    0.0160 H    3272  WAT3272     0.2052
   9814  O         13.5990  -20.4710   -1.9100 O.3  3273  WAT3273    -0.4105
   9815  H1        14.5510  -20.5560   -1.9600 H    3273  WAT3273     0.2052
   9816  H2        13.4520  -19.8070   -1.2360 H    3273  WAT3273     0.2052
   9817  O         16.4900  -21.0920  -16.4100 O.3  3274  WAT3274    -0.4105
   9818  H1        16.2040  -21.5060  -17.2250 H    3274  WAT3274     0.2052
   9819  H2        16.2920  -20.1630  -16.5300 H    3274  WAT3274     0.2052
   9820  O          1.0520  -27.8200   -1.5250 O.3  3275  WAT3275    -0.4105
   9821  H1         1.5560  -28.3990   -0.9530 H    3275  WAT3275     0.2052
   9822  H2         0.3130  -27.5360   -0.9870 H    3275  WAT3275     0.2052
   9823  O          7.9550  -25.0990  -17.9700 O.3  3276  WAT3276    -0.4105
   9824  H1         7.8500  -25.7130  -17.2440 H    3276  WAT3276     0.2052
   9825  H2         7.7870  -25.6220  -18.7540 H    3276  WAT3276     0.2052
   9826  O          8.1060  -26.4130   -1.9910 O.3  3277  WAT3277    -0.4105
   9827  H1         7.3410  -25.8450   -2.0760 H    3277  WAT3277     0.2052
   9828  H2         8.2880  -26.7050   -2.8840 H    3277  WAT3277     0.2052
   9829  O         11.1950  -26.0370  -17.3660 O.3  3278  WAT3278    -0.4105
   9830  H1        10.6460  -25.5900  -16.7210 H    3278  WAT3278     0.2052
   9831  H2        11.8170  -26.5420  -16.8420 H    3278  WAT3278     0.2052
   9832  O         15.2490  -24.6830   -1.4340 O.3  3279  WAT3279    -0.4105
   9833  H1        15.9900  -24.3450   -1.9370 H    3279  WAT3279     0.2052
   9834  H2        14.4860  -24.5130   -1.9870 H    3279  WAT3279     0.2052
   9835  O          3.0850  -29.6770   -0.6300 O.3  3280  WAT3280    -0.4105
   9836  H1         3.1250  -29.9760    0.2790 H    3280  WAT3280     0.2052
   9837  H2         3.9390  -29.2760   -0.7890 H    3280  WAT3280     0.2052
   9838  O          6.8630  -27.0780  -15.4690 O.3  3281  WAT3281    -0.4105
   9839  H1         7.2840  -27.2440  -14.6260 H    3281  WAT3281     0.2052
   9840  H2         6.9880  -27.8880  -15.9640 H    3281  WAT3281     0.2052
   9841  O          9.3750  -28.0540  -18.2210 O.3  3282  WAT3282    -0.4105
   9842  H1         9.8960  -28.7690  -18.5870 H    3282  WAT3282     0.2052
   9843  H2        10.0220  -27.4150  -17.9210 H    3282  WAT3282     0.2052
   9844  O         13.9230  -26.6310   -2.8980 O.3  3283  WAT3283    -0.4105
   9845  H1        14.3370  -26.4770   -2.0490 H    3283  WAT3283     0.2052
   9846  H2        12.9880  -26.5060   -2.7350 H    3283  WAT3283     0.2052
   9847  O         14.3950  -29.2910   -0.8940 O.3  3284  WAT3284    -0.4105
   9848  H1        14.9770  -30.0460   -0.9820 H    3284  WAT3284     0.2052
   9849  H2        14.5720  -28.7610   -1.6710 H    3284  WAT3284     0.2052
   9850  O          8.6850  -26.6790   -4.9280 O.3  3285  WAT3285    -0.4105
   9851  H1         9.1030  -25.8360   -5.1010 H    3285  WAT3285     0.2052
   9852  H2         7.7660  -26.5420   -5.1580 H    3285  WAT3285     0.2052
   9853  O         11.0210  -28.9470   -3.5450 O.3  3286  WAT3286    -0.4105
   9854  H1        11.1410  -29.5430   -2.8050 H    3286  WAT3286     0.2052
   9855  H2        11.8800  -28.9100   -3.9640 H    3286  WAT3286     0.2052
   9856  O         13.3600  -28.3940   -4.9680 O.3  3287  WAT3287    -0.4105
   9857  H1        12.8330  -27.8690   -5.5720 H    3287  WAT3287     0.2052
   9858  H2        13.7030  -27.7610   -4.3370 H    3287  WAT3287     0.2052
   9859  O          6.5350  -20.3740   -3.8130 O.3  3288  WAT3288    -0.4105
   9860  H1         5.9980  -19.6490   -4.1320 H    3288  WAT3288     0.2052
   9861  H2         6.7890  -20.8510   -4.6030 H    3288  WAT3288     0.2052
   9862  O          9.3920  -19.1390   -3.5540 O.3  3289  WAT3289    -0.4105
   9863  H1         9.3180  -18.2350   -3.2470 H    3289  WAT3289     0.2052
   9864  H2         8.4900  -19.4570   -3.5820 H    3289  WAT3289     0.2052
   9865  O          9.9400  -19.9730  -15.9310 O.3  3290  WAT3290    -0.4105
   9866  H1        10.8350  -19.6340  -15.9090 H    3290  WAT3290     0.2052
   9867  H2         9.9720  -20.6950  -16.5590 H    3290  WAT3290     0.2052
   9868  O          3.5800  -24.6000  -17.7030 O.3  3291  WAT3291    -0.4105
   9869  H1         4.0170  -24.0570  -17.0470 H    3291  WAT3291     0.2052
   9870  H2         4.0650  -25.4250  -17.6930 H    3291  WAT3291     0.2052
   9871  O          0.7940  -21.8110  -10.2510 O.3  3292  WAT3292    -0.4105
   9872  H1         1.1250  -22.6790  -10.4830 H    3292  WAT3292     0.2052
   9873  H2         1.2230  -21.6050   -9.4200 H    3292  WAT3292     0.2052
   9874  O          5.3910  -23.4800  -12.5900 O.3  3293  WAT3293    -0.4105
   9875  H1         5.0900  -23.6040  -11.6900 H    3293  WAT3293     0.2052
   9876  H2         5.2840  -24.3390  -12.9990 H    3293  WAT3293     0.2052
   9877  O          1.2830  -20.9440   -7.5120 O.3  3294  WAT3294    -0.4105
   9878  H1         0.8460  -20.7640   -6.6800 H    3294  WAT3294     0.2052
   9879  H2         1.8510  -20.1870   -7.6540 H    3294  WAT3294     0.2052
   9880  O         16.9200  -21.4420   -3.2250 O.3  3295  WAT3295    -0.4105
   9881  H1        16.3200  -21.3830   -3.9680 H    3295  WAT3295     0.2052
   9882  H2        17.0490  -22.3820   -3.0950 H    3295  WAT3295     0.2052
   9883  O         18.1600  -23.7010  -17.8880 O.3  3296  WAT3296    -0.4105
   9884  H1        17.3290  -23.6330  -17.4170 H    3296  WAT3296     0.2052
   9885  H2        18.3370  -22.8100  -18.1910 H    3296  WAT3296     0.2052
   9886  O         17.6150  -26.9560  -15.3840 O.3  3297  WAT3297    -0.4105
   9887  H1        18.3770  -26.3860  -15.2780 H    3297  WAT3297     0.2052
   9888  H2        17.6310  -27.5230  -14.6130 H    3297  WAT3297     0.2052
   9889  O          1.1160  -28.4320  -11.1540 O.3  3298  WAT3298    -0.4105
   9890  H1         0.4610  -28.7010  -11.7980 H    3298  WAT3298     0.2052
   9891  H2         1.9540  -28.5420  -11.6030 H    3298  WAT3298     0.2052
   9892  O         18.6210  -26.1010  -10.5400 O.3  3299  WAT3299    -0.4105
   9893  H1        18.9920  -26.8840  -10.9470 H    3299  WAT3299     0.2052
   9894  H2        19.2620  -25.4120  -10.7180 H    3299  WAT3299     0.2052
   9895  O         15.6050  -24.7170   -5.1270 O.3  3300  WAT3300    -0.4105
   9896  H1        14.7910  -24.2870   -4.8650 H    3300  WAT3300     0.2052
   9897  H2        16.0120  -24.1050   -5.7400 H    3300  WAT3300     0.2052
   9898  O         17.6670  -26.6620  -18.2270 O.3  3301  WAT3301    -0.4105
   9899  H1        17.9420  -25.7540  -18.3550 H    3301  WAT3301     0.2052
   9900  H2        17.4780  -26.7260  -17.2910 H    3301  WAT3301     0.2052
   9901  O         17.5640  -28.7250  -13.2340 O.3  3302  WAT3302    -0.4105
   9902  H1        17.1880  -29.4930  -13.6660 H    3302  WAT3302     0.2052
   9903  H2        16.8340  -28.3430  -12.7470 H    3302  WAT3302     0.2052
   9904  O          2.1530  -28.0470   -6.6130 O.3  3303  WAT3303    -0.4105
   9905  H1         2.5210  -28.1340   -5.7340 H    3303  WAT3303     0.2052
   9906  H2         1.5850  -28.8100   -6.7130 H    3303  WAT3303     0.2052
   9907  O         16.9540  -29.5780   -3.6000 O.3  3304  WAT3304    -0.4105
   9908  H1        16.7220  -29.8070   -4.5000 H    3304  WAT3304     0.2052
   9909  H2        17.2140  -28.6580   -3.6460 H    3304  WAT3304     0.2052
   9910  O         15.6620  -19.9650  -11.6000 O.3  3305  WAT3305    -0.4105
   9911  H1        16.2580  -20.2870  -12.2770 H    3305  WAT3305     0.2052
   9912  H2        15.9200  -20.4380  -10.8090 H    3305  WAT3305     0.2052
   9913  O          3.5690  -23.5330   -1.4510 O.3  3306  WAT3306    -0.4105
   9914  H1         3.5260  -23.9040   -0.5700 H    3306  WAT3306     0.2052
   9915  H2         3.7000  -22.5960   -1.3110 H    3306  WAT3306     0.2052
   9916  O          7.2690  -21.9780   -5.8500 O.3  3307  WAT3307    -0.4105
   9917  H1         7.0280  -21.7100   -6.7370 H    3307  WAT3307     0.2052
   9918  H2         8.2100  -21.8070   -5.7950 H    3307  WAT3307     0.2052
   9919  O         18.5300  -19.9580   -5.0490 O.3  3308  WAT3308    -0.4105
   9920  H1        18.0350  -19.5610   -5.7660 H    3308  WAT3308     0.2052
   9921  H2        17.9210  -20.5830   -4.6550 H    3308  WAT3308     0.2052
   9922  O          3.4070  -20.5870   -4.3310 O.3  3309  WAT3309    -0.4105
   9923  H1         2.8130  -20.7190   -3.5920 H    3309  WAT3309     0.2052
   9924  H2         3.4000  -21.4230   -4.7970 H    3309  WAT3309     0.2052
   9925  O         16.2140  -19.3160   -7.7700 O.3  3310  WAT3310    -0.4105
   9926  H1        15.7540  -18.5640   -8.1450 H    3310  WAT3310     0.2052
   9927  H2        15.5850  -20.0350   -7.8290 H    3310  WAT3310     0.2052
   9928  O          3.0390  -23.2210   -5.3810 O.3  3311  WAT3311    -0.4105
   9929  H1         2.3120  -23.8410   -5.4480 H    3311  WAT3311     0.2052
   9930  H2         3.1000  -22.8270   -6.2510 H    3311  WAT3311     0.2052
   9931  O          6.6430  -21.0070   -8.5960 O.3  3312  WAT3312    -0.4105
   9932  H1         7.1600  -21.6180   -9.1210 H    3312  WAT3312     0.2052
   9933  H2         7.2930  -20.5040   -8.1050 H    3312  WAT3312     0.2052
   9934  O          9.3830  -20.1160   -7.7690 O.3  3313  WAT3313    -0.4105
   9935  H1         9.6710  -20.3710   -8.6450 H    3313  WAT3313     0.2052
   9936  H2         9.8950  -20.6680   -7.1780 H    3313  WAT3313     0.2052
   9937  O          1.3220  -19.9040  -12.1710 O.3  3314  WAT3314    -0.4105
   9938  H1         1.1540  -20.5370  -11.4730 H    3314  WAT3314     0.2052
   9939  H2         0.4550  -19.6980  -12.5220 H    3314  WAT3314     0.2052
   9940  O          2.9280  -21.2110  -14.7260 O.3  3315  WAT3315    -0.4105
   9941  H1         2.4030  -20.8300  -15.4300 H    3315  WAT3315     0.2052
   9942  H2         2.8520  -20.5860  -14.0050 H    3315  WAT3315     0.2052
   9943  O          9.4500  -19.1940   -0.4020 O.3  3316  WAT3316    -0.4105
   9944  H1        10.3770  -19.4300   -0.3580 H    3316  WAT3316     0.2052
   9945  H2         9.4350  -18.3670   -0.8830 H    3316  WAT3316     0.2052
   9946  O         17.6840  -19.6520  -13.4050 O.3  3317  WAT3317    -0.4105
   9947  H1        17.8600  -20.3380  -14.0480 H    3317  WAT3317     0.2052
   9948  H2        16.9870  -19.1270  -13.7970 H    3317  WAT3317     0.2052
   9949  O          5.5270  -19.2620  -15.8510 O.3  3318  WAT3318    -0.4105
   9950  H1         6.2590  -19.5470  -16.3990 H    3318  WAT3318     0.2052
   9951  H2         5.7870  -19.5010  -14.9610 H    3318  WAT3318     0.2052
   9952  O          4.6890  -23.1460  -15.8460 O.3  3319  WAT3319    -0.4105
   9953  H1         4.0600  -22.6770  -15.2980 H    3319  WAT3319     0.2052
   9954  H2         4.8030  -23.9910  -15.4120 H    3319  WAT3319     0.2052
   9955  O         16.0180  -19.9670   -0.5780 O.3  3320  WAT3320    -0.4105
   9956  H1        16.8100  -20.4630   -0.7850 H    3320  WAT3320     0.2052
   9957  H2        16.3110  -19.2880    0.0300 H    3320  WAT3320     0.2052
   9958  O         10.2750  -27.3170  -27.8150 O.3  3321  WAT3321    -0.4105
   9959  H1         9.5000  -27.7970  -27.5250 H    3321  WAT3321     0.2052
   9960  H2        10.9270  -27.9970  -27.9900 H    3321  WAT3321     0.2052
   9961  O          4.2920  -27.0060  -26.9380 O.3  3322  WAT3322    -0.4105
   9962  H1         3.4610  -27.2610  -26.5380 H    3322  WAT3322     0.2052
   9963  H2         4.9000  -26.9340  -26.2020 H    3322  WAT3322     0.2052
   9964  O         14.2960  -22.9110  -29.0350 O.3  3323  WAT3323    -0.4105
   9965  H1        13.8340  -23.6830  -28.7070 H    3323  WAT3323     0.2052
   9966  H2        15.1090  -22.8850  -28.5300 H    3323  WAT3323     0.2052
   9967  O          4.2720  -22.9720  -26.7420 O.3  3324  WAT3324    -0.4105
   9968  H1         4.5750  -23.8620  -26.9210 H    3324  WAT3324     0.2052
   9969  H2         5.0170  -22.4140  -26.9700 H    3324  WAT3324     0.2052
   9970  O          9.7160  -24.6420  -27.8080 O.3  3325  WAT3325    -0.4105
   9971  H1         9.6470  -25.5830  -27.9690 H    3325  WAT3325     0.2052
   9972  H2        10.4780  -24.5520  -27.2360 H    3325  WAT3325     0.2052
   9973  O          6.2520  -26.2140  -25.3430 O.3  3326  WAT3326    -0.4105
   9974  H1         5.9190  -25.5870  -24.7010 H    3326  WAT3326     0.2052
   9975  H2         6.4290  -25.6880  -26.1230 H    3326  WAT3326     0.2052
   9976  O          5.4640  -24.2460  -23.5290 O.3  3327  WAT3327    -0.4105
   9977  H1         6.0810  -23.5710  -23.8100 H    3327  WAT3327     0.2052
   9978  H2         4.6030  -23.8370  -23.6200 H    3327  WAT3327     0.2052
   9979  O         16.3820  -22.7820  -25.6130 O.3  3328  WAT3328    -0.4105
   9980  H1        15.6980  -22.1120  -25.6210 H    3328  WAT3328     0.2052
   9981  H2        16.9210  -22.5840  -26.3790 H    3328  WAT3328     0.2052
   9982  O         13.9180  -20.9380  -26.8990 O.3  3329  WAT3329    -0.4105
   9983  H1        13.9300  -21.3420  -27.7660 H    3329  WAT3329     0.2052
   9984  H2        13.3650  -20.1630  -27.0020 H    3329  WAT3329     0.2052
   9985  O         13.3160  -26.0350  -25.5700 O.3  3330  WAT3330    -0.4105
   9986  H1        13.7330  -26.2490  -26.4050 H    3330  WAT3330     0.2052
   9987  H2        14.0400  -25.7770  -24.9990 H    3330  WAT3330     0.2052
   9988  O         17.2620  -27.6360  -25.4790 O.3  3331  WAT3331    -0.4105
   9989  H1        16.4340  -27.5670  -25.9540 H    3331  WAT3331     0.2052
   9990  H2        17.8570  -27.0510  -25.9470 H    3331  WAT3331     0.2052
   9991  O          6.8280  -24.3760  -27.5070 O.3  3332  WAT3332    -0.4105
   9992  H1         6.5310  -24.9820  -28.1870 H    3332  WAT3332     0.2052
   9993  H2         7.7780  -24.3390  -27.6180 H    3332  WAT3332     0.2052
   9994  O         14.9170  -20.8030  -23.8450 O.3  3333  WAT3333    -0.4105
   9995  H1        14.4400  -19.9960  -24.0380 H    3333  WAT3333     0.2052
   9996  H2        14.2330  -21.4550  -23.6920 H    3333  WAT3333     0.2052
   9997  O          5.9200  -24.6380  -20.8570 O.3  3334  WAT3334    -0.4105
   9998  H1         5.0230  -24.4140  -20.6090 H    3334  WAT3334     0.2052
   9999  H2         5.9450  -24.5150  -21.8050 H    3334  WAT3334     0.2052
  10000  O          4.7470  -27.7670  -22.2810 O.3  3335  WAT3335    -0.4105
  10001  H1         4.6080  -26.8950  -21.9120 H    3335  WAT3335     0.2052
  10002  H2         3.8650  -28.1100  -22.4260 H    3335  WAT3335     0.2052
  10003  O          6.5450  -21.8250  -20.0720 O.3  3336  WAT3336    -0.4105
  10004  H1         6.5170  -21.4200  -20.9400 H    3336  WAT3336     0.2052
  10005  H2         6.3820  -22.7540  -20.2350 H    3336  WAT3336     0.2052
  10006  O         18.4970  -21.0420  -18.7760 O.3  3337  WAT3337    -0.4105
  10007  H1        18.9720  -20.5640  -18.0970 H    3337  WAT3337     0.2052
  10008  H2        19.1170  -21.1100  -19.5010 H    3337  WAT3337     0.2052
  10009  O          0.6990  -25.9970  -26.3640 O.3  3338  WAT3338    -0.4105
  10010  H1         0.7770  -25.8620  -27.3080 H    3338  WAT3338     0.2052
  10011  H2         1.3130  -26.7060  -26.1710 H    3338  WAT3338     0.2052
  10012  O         17.9000  -23.8510  -21.6160 O.3  3339  WAT3339    -0.4105
  10013  H1        18.0260  -24.0890  -22.5340 H    3339  WAT3339     0.2052
  10014  H2        17.9420  -24.6820  -21.1440 H    3339  WAT3339     0.2052
  10015  O         11.7620  -20.1480  -23.0460 O.3  3340  WAT3340    -0.4105
  10016  H1        12.2760  -20.2370  -22.2440 H    3340  WAT3340     0.2052
  10017  H2        10.9180  -19.8020  -22.7540 H    3340  WAT3340     0.2052
  10018  O          0.7550  -24.9560  -23.8240 O.3  3341  WAT3341    -0.4105
  10019  H1         0.9180  -25.4250  -24.6420 H    3341  WAT3341     0.2052
  10020  H2         1.2200  -25.4630  -23.1590 H    3341  WAT3341     0.2052
  10021  O          2.3290  -25.5810  -21.6650 O.3  3342  WAT3342    -0.4105
  10022  H1         1.9440  -26.2210  -21.0660 H    3342  WAT3342     0.2052
  10023  H2         2.6400  -24.8770  -21.0950 H    3342  WAT3342     0.2052
  10024  O          8.4780  -28.7330  -26.1840 O.3  3343  WAT3343    -0.4105
  10025  H1         8.8450  -29.2070  -25.4380 H    3343  WAT3343     0.2052
  10026  H2         8.2890  -27.8590  -25.8430 H    3343  WAT3343     0.2052
  10027  O          6.2680  -29.6920  -23.8650 O.3  3344  WAT3344    -0.4105
  10028  H1         5.9640  -28.8130  -23.6400 H    3344  WAT3344     0.2052
  10029  H2         7.2230  -29.6320  -23.8300 H    3344  WAT3344     0.2052
  10030  O         15.5550  -26.4890  -27.4760 O.3  3345  WAT3345    -0.4105
  10031  H1        16.2750  -25.9940  -27.8670 H    3345  WAT3345     0.2052
  10032  H2        15.3540  -27.1680  -28.1210 H    3345  WAT3345     0.2052
  10033  O         10.9370  -26.4180  -21.5890 O.3  3346  WAT3346    -0.4105
  10034  H1        10.8710  -27.3390  -21.8430 H    3346  WAT3346     0.2052
  10035  H2        10.3080  -26.3210  -20.8750 H    3346  WAT3346     0.2052
  10036  O          4.8400  -25.8180  -29.6310 O.3  3347  WAT3347    -0.4105
  10037  H1         5.3580  -26.6210  -29.6850 H    3347  WAT3347     0.2052
  10038  H2         4.3890  -25.8800  -28.7890 H    3347  WAT3347     0.2052
  10039  O          2.3250  -28.8520  -22.7180 O.3  3348  WAT3348    -0.4105
  10040  H1         1.9660  -28.1860  -22.1310 H    3348  WAT3348     0.2052
  10041  H2         2.0300  -29.6830  -22.3470 H    3348  WAT3348     0.2052
  10042  O          5.5260  -28.3930  -19.8340 O.3  3349  WAT3349    -0.4105
  10043  H1         5.2260  -28.2480  -20.7320 H    3349  WAT3349     0.2052
  10044  H2         6.2970  -28.9530  -19.9270 H    3349  WAT3349     0.2052
  10045  O         10.8690  -23.5960  -21.8390 O.3  3350  WAT3350    -0.4105
  10046  H1        10.8830  -24.5280  -22.0570 H    3350  WAT3350     0.2052
  10047  H2        10.1610  -23.5100  -21.2000 H    3350  WAT3350     0.2052
  10048  O         17.0800  -26.9560  -22.4920 O.3  3351  WAT3351    -0.4105
  10049  H1        16.3550  -26.3630  -22.6890 H    3351  WAT3351     0.2052
  10050  H2        17.6080  -26.9630  -23.2910 H    3351  WAT3351     0.2052
  10051  O         12.6100  -25.2300  -28.9940 O.3  3352  WAT3352    -0.4105
  10052  H1        12.9620  -25.8270  -29.6530 H    3352  WAT3352     0.2052
  10053  H2        11.7260  -25.5550  -28.8230 H    3352  WAT3352     0.2052
  10054  O         10.3020  -21.9550  -24.7450 O.3  3353  WAT3353    -0.4105
  10055  H1        10.9460  -21.7490  -24.0670 H    3353  WAT3353     0.2052
  10056  H2        10.6650  -22.7160  -25.1980 H    3353  WAT3353     0.2052
  10057  O         11.5750  -23.9510  -26.0270 O.3  3354  WAT3354    -0.4105
  10058  H1        12.2180  -24.6520  -25.9140 H    3354  WAT3354     0.2052
  10059  H2        12.1000  -23.1720  -26.2070 H    3354  WAT3354     0.2052
  10060  O         13.3490  -23.1520  -22.8230 O.3  3355  WAT3355    -0.4105
  10061  H1        13.6850  -22.5650  -22.1460 H    3355  WAT3355     0.2052
  10062  H2        12.4290  -23.2830  -22.5940 H    3355  WAT3355     0.2052
  10063  O          1.1870  -21.3740  -21.0540 O.3  3356  WAT3356    -0.4105
  10064  H1         1.2960  -22.3150  -21.1950 H    3356  WAT3356     0.2052
  10065  H2         0.5350  -21.1090  -21.7030 H    3356  WAT3356     0.2052
  10066  O          9.1780  -23.1030  -19.6550 O.3  3357  WAT3357    -0.4105
  10067  H1         8.8580  -23.8220  -19.1100 H    3357  WAT3357     0.2052
  10068  H2         8.5040  -22.4270  -19.5810 H    3357  WAT3357     0.2052
  10069  O         14.8530  -28.7560  -29.7780 O.3  3358  WAT3358    -0.4105
  10070  H1        13.9120  -28.7410  -29.6030 H    3358  WAT3358     0.2052
  10071  H2        15.1670  -29.5430  -29.3320 H    3358  WAT3358     0.2052
  10072  O         16.8550  -21.5850  -28.1030 O.3  3359  WAT3359    -0.4105
  10073  H1        16.9800  -20.7620  -27.6300 H    3359  WAT3359     0.2052
  10074  H2        17.7220  -21.7960  -28.4500 H    3359  WAT3359     0.2052
  10075  O          4.3270  -19.4920  -28.4310 O.3  3360  WAT3360    -0.4105
  10076  H1         5.0630  -20.0410  -28.1600 H    3360  WAT3360     0.2052
  10077  H2         4.7110  -18.6270  -28.5700 H    3360  WAT3360     0.2052
  10078  O          3.3330  -20.3070  -19.2430 O.3  3361  WAT3361    -0.4105
  10079  H1         4.1340  -19.9860  -18.8290 H    3361  WAT3361     0.2052
  10080  H2         2.8180  -20.6680  -18.5210 H    3361  WAT3361     0.2052
  10081  O         12.1690  -24.2000  -19.2950 O.3  3362  WAT3362    -0.4105
  10082  H1        11.5630  -24.1760  -20.0350 H    3362  WAT3362     0.2052
  10083  H2        11.8650  -24.9310  -18.7580 H    3362  WAT3362     0.2052
  10084  O         13.5990  -20.4710  -20.6840 O.3  3363  WAT3363    -0.4105
  10085  H1        14.5510  -20.5560  -20.7340 H    3363  WAT3363     0.2052
  10086  H2        13.4520  -19.8070  -20.0110 H    3363  WAT3363     0.2052
  10087  O          1.0520  -27.8200  -20.2990 O.3  3364  WAT3364    -0.4105
  10088  H1         1.5560  -28.3990  -19.7270 H    3364  WAT3364     0.2052
  10089  H2         0.3130  -27.5360  -19.7610 H    3364  WAT3364     0.2052
  10090  O          8.1060  -26.4130  -20.7650 O.3  3365  WAT3365    -0.4105
  10091  H1         7.3410  -25.8450  -20.8500 H    3365  WAT3365     0.2052
  10092  H2         8.2880  -26.7050  -21.6590 H    3365  WAT3365     0.2052
  10093  O         15.2490  -24.6830  -20.2080 O.3  3366  WAT3366    -0.4105
  10094  H1        15.9900  -24.3450  -20.7110 H    3366  WAT3366     0.2052
  10095  H2        14.4860  -24.5130  -20.7610 H    3366  WAT3366     0.2052
  10096  O          3.0850  -29.6770  -19.4040 O.3  3367  WAT3367    -0.4105
  10097  H1         3.1250  -29.9760  -18.4950 H    3367  WAT3367     0.2052
  10098  H2         3.9390  -29.2760  -19.5630 H    3367  WAT3367     0.2052
  10099  O         13.9230  -26.6310  -21.6720 O.3  3368  WAT3368    -0.4105
  10100  H1        14.3370  -26.4770  -20.8230 H    3368  WAT3368     0.2052
  10101  H2        12.9880  -26.5060  -21.5100 H    3368  WAT3368     0.2052
  10102  O         14.3950  -29.2910  -19.6680 O.3  3369  WAT3369    -0.4105
  10103  H1        14.9770  -30.0460  -19.7560 H    3369  WAT3369     0.2052
  10104  H2        14.5720  -28.7610  -20.4450 H    3369  WAT3369     0.2052
  10105  O          8.6850  -26.6790  -23.7030 O.3  3370  WAT3370    -0.4105
  10106  H1         9.1030  -25.8360  -23.8750 H    3370  WAT3370     0.2052
  10107  H2         7.7660  -26.5420  -23.9320 H    3370  WAT3370     0.2052
  10108  O         11.0210  -28.9470  -22.3190 O.3  3371  WAT3371    -0.4105
  10109  H1        11.1410  -29.5430  -21.5790 H    3371  WAT3371     0.2052
  10110  H2        11.8800  -28.9100  -22.7390 H    3371  WAT3371     0.2052
  10111  O         13.3600  -28.3940  -23.7430 O.3  3372  WAT3372    -0.4105
  10112  H1        12.8330  -27.8690  -24.3460 H    3372  WAT3372     0.2052
  10113  H2        13.7030  -27.7610  -23.1120 H    3372  WAT3372     0.2052
  10114  O          6.5350  -20.3740  -22.5870 O.3  3373  WAT3373    -0.4105
  10115  H1         5.9980  -19.6490  -22.9060 H    3373  WAT3373     0.2052
  10116  H2         6.7890  -20.8510  -23.3770 H    3373  WAT3373     0.2052
  10117  O          9.3920  -19.1390  -22.3280 O.3  3374  WAT3374    -0.4105
  10118  H1         9.3180  -18.2350  -22.0210 H    3374  WAT3374     0.2052
  10119  H2         8.4900  -19.4570  -22.3560 H    3374  WAT3374     0.2052
  10120  O          0.7940  -21.8110  -29.0250 O.3  3375  WAT3375    -0.4105
  10121  H1         1.1250  -22.6790  -29.2570 H    3375  WAT3375     0.2052
  10122  H2         1.2230  -21.6050  -28.1940 H    3375  WAT3375     0.2052
  10123  O          1.2830  -20.9440  -26.2870 O.3  3376  WAT3376    -0.4105
  10124  H1         0.8460  -20.7640  -25.4540 H    3376  WAT3376     0.2052
  10125  H2         1.8510  -20.1870  -26.4290 H    3376  WAT3376     0.2052
  10126  O         16.9200  -21.4420  -21.9990 O.3  3377  WAT3377    -0.4105
  10127  H1        16.3200  -21.3830  -22.7430 H    3377  WAT3377     0.2052
  10128  H2        17.0490  -22.3820  -21.8690 H    3377  WAT3377     0.2052
  10129  O         18.6210  -26.1010  -29.3140 O.3  3378  WAT3378    -0.4105
  10130  H1        18.9920  -26.8840  -29.7210 H    3378  WAT3378     0.2052
  10131  H2        19.2620  -25.4120  -29.4930 H    3378  WAT3378     0.2052
  10132  O         15.6050  -24.7170  -23.9010 O.3  3379  WAT3379    -0.4105
  10133  H1        14.7910  -24.2870  -23.6390 H    3379  WAT3379     0.2052
  10134  H2        16.0120  -24.1050  -24.5150 H    3379  WAT3379     0.2052
  10135  O          2.1530  -28.0470  -25.3880 O.3  3380  WAT3380    -0.4105
  10136  H1         2.5210  -28.1340  -24.5080 H    3380  WAT3380     0.2052
  10137  H2         1.5850  -28.8100  -25.4870 H    3380  WAT3380     0.2052
  10138  O         16.9540  -29.5780  -22.3750 O.3  3381  WAT3381    -0.4105
  10139  H1        16.7220  -29.8070  -23.2750 H    3381  WAT3381     0.2052
  10140  H2        17.2140  -28.6580  -22.4200 H    3381  WAT3381     0.2052
  10141  O          3.5690  -23.5330  -20.2260 O.3  3382  WAT3382    -0.4105
  10142  H1         3.5260  -23.9040  -19.3440 H    3382  WAT3382     0.2052
  10143  H2         3.7000  -22.5960  -20.0850 H    3382  WAT3382     0.2052
  10144  O          7.2690  -21.9780  -24.6250 O.3  3383  WAT3383    -0.4105
  10145  H1         7.0280  -21.7100  -25.5120 H    3383  WAT3383     0.2052
  10146  H2         8.2100  -21.8070  -24.5690 H    3383  WAT3383     0.2052
  10147  O         18.5300  -19.9580  -23.8240 O.3  3384  WAT3384    -0.4105
  10148  H1        18.0350  -19.5610  -24.5410 H    3384  WAT3384     0.2052
  10149  H2        17.9210  -20.5830  -23.4300 H    3384  WAT3384     0.2052
  10150  O          3.4070  -20.5870  -23.1060 O.3  3385  WAT3385    -0.4105
  10151  H1         2.8130  -20.7190  -22.3670 H    3385  WAT3385     0.2052
  10152  H2         3.4000  -21.4230  -23.5720 H    3385  WAT3385     0.2052
  10153  O         16.2140  -19.3160  -26.5450 O.3  3386  WAT3386    -0.4105
  10154  H1        15.7540  -18.5640  -26.9190 H    3386  WAT3386     0.2052
  10155  H2        15.5850  -20.0350  -26.6030 H    3386  WAT3386     0.2052
  10156  O          3.0390  -23.2210  -24.1550 O.3  3387  WAT3387    -0.4105
  10157  H1         2.3120  -23.8410  -24.2220 H    3387  WAT3387     0.2052
  10158  H2         3.1000  -22.8270  -25.0250 H    3387  WAT3387     0.2052
  10159  O          6.6430  -21.0070  -27.3700 O.3  3388  WAT3388    -0.4105
  10160  H1         7.1600  -21.6180  -27.8950 H    3388  WAT3388     0.2052
  10161  H2         7.2930  -20.5040  -26.8790 H    3388  WAT3388     0.2052
  10162  O          9.3830  -20.1160  -26.5430 O.3  3389  WAT3389    -0.4105
  10163  H1         9.6710  -20.3710  -27.4200 H    3389  WAT3389     0.2052
  10164  H2         9.8950  -20.6680  -25.9530 H    3389  WAT3389     0.2052
  10165  O          9.4500  -19.1940  -19.1760 O.3  3390  WAT3390    -0.4105
  10166  H1        10.3770  -19.4300  -19.1330 H    3390  WAT3390     0.2052
  10167  H2         9.4350  -18.3670  -19.6580 H    3390  WAT3390     0.2052
  10168  O         16.0180  -19.9670  -19.3520 O.3  3391  WAT3391    -0.4105
  10169  H1        16.8100  -20.4630  -19.5600 H    3391  WAT3391     0.2052
  10170  H2        16.3110  -19.2880  -18.7450 H    3391  WAT3391     0.2052
  10171  O         -6.6310   27.2280   26.6270 O.3  3392  WAT3392    -0.4105
  10172  H1        -6.7110   26.3130   26.3560 H    3392  WAT3392     0.2052
  10173  H2        -7.0440   27.7240   25.9210 H    3392  WAT3392     0.2052
  10174  O         -8.4990   29.0060   28.5080 O.3  3393  WAT3393    -0.4105
  10175  H1        -9.2750   28.5260   28.7980 H    3393  WAT3393     0.2052
  10176  H2        -7.8480   28.3260   28.3330 H    3393  WAT3393     0.2052
  10177  O        -16.0730   24.2780   23.1700 O.3  3394  WAT3394    -0.4105
  10178  H1       -16.9610   24.6190   23.0680 H    3394  WAT3394     0.2052
  10179  H2       -15.7890   24.0780   22.2780 H    3394  WAT3394     0.2052
  10180  O        -18.1100   26.8780   29.0540 O.3  3395  WAT3395    -0.4105
  10181  H1       -17.5380   26.1110   29.0540 H    3395  WAT3395     0.2052
  10182  H2       -18.1100   27.1770   28.1440 H    3395  WAT3395     0.2052
  10183  O         -8.0270   24.4880   28.7420 O.3  3396  WAT3396    -0.4105
  10184  H1        -7.6510   23.6150   28.6290 H    3396  WAT3396     0.2052
  10185  H2        -8.1250   24.8240   27.8510 H    3396  WAT3396     0.2052
  10186  O        -13.8970   22.8610   24.2030 O.3  3397  WAT3397    -0.4105
  10187  H1       -13.7900   23.7610   24.5100 H    3397  WAT3397     0.2052
  10188  H2       -14.8080   22.8130   23.9130 H    3397  WAT3397     0.2052
  10189  O         -4.2450   21.9830   25.6740 O.3  3398  WAT3398    -0.4105
  10190  H1        -3.4240   21.4930   25.7170 H    3398  WAT3398     0.2052
  10191  H2        -4.2120   22.5730   26.4280 H    3398  WAT3398     0.2052
  10192  O        -16.2490   24.7830   29.4490 O.3  3399  WAT3399    -0.4105
  10193  H1       -15.5680   25.0470   30.0670 H    3399  WAT3399     0.2052
  10194  H2       -16.5640   23.9430   29.7820 H    3399  WAT3399     0.2052
  10195  O        -12.0560   25.8300   28.5360 O.3  3400  WAT3400    -0.4105
  10196  H1       -11.5480   26.3280   29.1760 H    3400  WAT3400     0.2052
  10197  H2       -11.5250   25.0530   28.3600 H    3400  WAT3400     0.2052
  10198  O         -4.0090   23.9230   28.4470 O.3  3401  WAT3401    -0.4105
  10199  H1        -4.7130   24.2120   29.0280 H    3401  WAT3401     0.2052
  10200  H2        -3.6480   24.7330   28.0870 H    3401  WAT3401     0.2052
  10201  O         -0.9400   23.3690   28.8380 O.3  3402  WAT3402    -0.4105
  10202  H1        -1.8880   23.4030   28.9700 H    3402  WAT3402     0.2052
  10203  H2        -0.6150   24.1830   29.2230 H    3402  WAT3402     0.2052
  10204  O        -10.4080   19.6690   27.1340 O.3  3403  WAT3403    -0.4105
  10205  H1       -10.1010   19.1130   26.4170 H    3403  WAT3403     0.2052
  10206  H2       -11.3380   19.8030   26.9510 H    3403  WAT3403     0.2052
  10207  O         -8.0200   27.7330   23.8700 O.3  3404  WAT3404    -0.4105
  10208  H1        -8.9470   27.6670   24.0990 H    3404  WAT3404     0.2052
  10209  H2        -7.8680   28.6710   23.7550 H    3404  WAT3404     0.2052
  10210  O         -8.0330   24.0050   20.8660 O.3  3405  WAT3405    -0.4105
  10211  H1        -8.9730   24.1670   20.9520 H    3405  WAT3405     0.2052
  10212  H2        -7.7150   24.7240   20.3200 H    3405  WAT3405     0.2052
  10213  O         -3.9900   29.2960   24.3730 O.3  3406  WAT3406    -0.4105
  10214  H1        -4.6090   28.9570   23.7260 H    3406  WAT3406     0.2052
  10215  H2        -4.0080   28.6510   25.0810 H    3406  WAT3406     0.2052
  10216  O        -12.4140   28.2600   26.6520 O.3  3407  WAT3407    -0.4105
  10217  H1       -12.8190   27.5480   26.1560 H    3407  WAT3407     0.2052
  10218  H2       -12.3280   27.9150   27.5410 H    3407  WAT3407     0.2052
  10219  O         -5.8140   28.5340   21.3810 O.3  3408  WAT3408    -0.4105
  10220  H1        -5.3750   27.6960   21.2340 H    3408  WAT3408     0.2052
  10221  H2        -5.1010   29.1670   21.4670 H    3408  WAT3408     0.2052
  10222  O         -2.2320   19.7880   19.6950 O.3  3409  WAT3409    -0.4105
  10223  H1        -2.5450   19.8810   20.5950 H    3409  WAT3409     0.2052
  10224  H2        -1.4710   20.3670   19.6440 H    3409  WAT3409     0.2052
  10225  O        -15.7140   27.1540   24.1520 O.3  3410  WAT3410    -0.4105
  10226  H1       -15.8340   27.8810   23.5410 H    3410  WAT3410     0.2052
  10227  H2       -16.0240   26.3850   23.6750 H    3410  WAT3410     0.2052
  10228  O        -13.2480   20.4980   27.5350 O.3  3411  WAT3411    -0.4105
  10229  H1       -13.6910   21.2790   27.2030 H    3411  WAT3411     0.2052
  10230  H2       -12.6890   20.8210   28.2420 H    3411  WAT3411     0.2052
  10231  O        -10.1320   20.1190   22.4150 O.3  3412  WAT3412    -0.4105
  10232  H1       -10.7560   20.1150   23.1410 H    3412  WAT3412     0.2052
  10233  H2       -10.2190   19.2520   22.0190 H    3412  WAT3412     0.2052
  10234  O        -11.2100   21.0430   29.3940 O.3  3413  WAT3413    -0.4105
  10235  H1       -10.9130   21.9490   29.3130 H    3413  WAT3413     0.2052
  10236  H2       -10.6620   20.5550   28.7800 H    3413  WAT3413     0.2052
  10237  O        -13.4560   25.6210   25.2630 O.3  3414  WAT3414    -0.4105
  10238  H1       -13.6820   25.4050   26.1680 H    3414  WAT3414     0.2052
  10239  H2       -14.2370   26.0540   24.9170 H    3414  WAT3414     0.2052
  10240  O         -6.2260   25.6280   23.8620 O.3  3415  WAT3415    -0.4105
  10241  H1        -6.8260   26.3510   23.6780 H    3415  WAT3415     0.2052
  10242  H2        -5.6790   25.5650   23.0800 H    3415  WAT3415     0.2052
  10243  O         -7.6200   24.2640   25.8920 O.3  3416  WAT3416    -0.4105
  10244  H1        -7.2270   24.5810   25.0790 H    3416  WAT3416     0.2052
  10245  H2        -7.2580   23.3850   26.0070 H    3416  WAT3416     0.2052
  10246  O        -18.5840   20.8540   28.1150 O.3  3417  WAT3417    -0.4105
  10247  H1       -18.8720   21.4240   28.8280 H    3417  WAT3417     0.2052
  10248  H2       -17.8390   20.3750   28.4780 H    3417  WAT3417     0.2052
  10249  O        -18.3970   24.7960   19.3260 O.3  3418  WAT3418    -0.4105
  10250  H1       -18.4790   25.7390   19.4670 H    3418  WAT3418     0.2052
  10251  H2       -18.7480   24.6540   18.4470 H    3418  WAT3418     0.2052
  10252  O        -10.5970   23.5300   28.3930 O.3  3419  WAT3419    -0.4105
  10253  H1       -10.5930   23.0890   27.5430 H    3419  WAT3419     0.2052
  10254  H2        -9.7020   23.8520   28.5000 H    3419  WAT3419     0.2052
  10255  O        -14.7460   23.4130   27.3520 O.3  3420  WAT3420    -0.4105
  10256  H1       -15.0860   23.8900   28.1090 H    3420  WAT3420     0.2052
  10257  H2       -15.5090   22.9590   26.9920 H    3420  WAT3420     0.2052
  10258  O        -10.5350   24.5310   21.3830 O.3  3421  WAT3421    -0.4105
  10259  H1       -10.4130   24.4900   22.3320 H    3421  WAT3421     0.2052
  10260  H2       -10.9200   25.3940   21.2280 H    3421  WAT3421     0.2052
  10261  O        -11.5230   26.8410   20.7820 O.3  3422  WAT3422    -0.4105
  10262  H1       -12.0910   26.3930   20.1550 H    3422  WAT3422     0.2052
  10263  H2       -10.8140   27.2010   20.2480 H    3422  WAT3422     0.2052
  10264  O        -17.4320   22.3350   26.2680 O.3  3423  WAT3423    -0.4105
  10265  H1       -17.7170   21.9700   27.1060 H    3423  WAT3423     0.2052
  10266  H2       -17.4940   21.6030   25.6550 H    3423  WAT3423     0.2052
  10267  O         -7.7580   21.2270   22.9900 O.3  3424  WAT3424    -0.4105
  10268  H1        -8.5720   20.7290   22.9140 H    3424  WAT3424     0.2052
  10269  H2        -7.9520   22.0670   22.5730 H    3424  WAT3424     0.2052
  10270  O         -5.0430   25.5990   21.2860 O.3  3425  WAT3425    -0.4105
  10271  H1        -4.1550   25.9110   21.1110 H    3425  WAT3425     0.2052
  10272  H2        -5.0730   24.7270   20.8940 H    3425  WAT3425     0.2052
  10273  O         -2.7720   26.9110   20.7540 O.3  3426  WAT3426    -0.4105
  10274  H1        -2.8550   27.3420   19.9040 H    3426  WAT3426     0.2052
  10275  H2        -2.0520   27.3700   21.1870 H    3426  WAT3426     0.2052
  10276  O        -17.9390   27.4700   20.2280 O.3  3427  WAT3427    -0.4105
  10277  H1       -17.0690   27.7530   20.5120 H    3427  WAT3427     0.2052
  10278  H2       -18.4300   28.2840   20.1130 H    3427  WAT3427     0.2052
  10279  O        -10.7750   28.8580   24.3490 O.3  3428  WAT3428    -0.4105
  10280  H1       -10.3190   29.6680   24.5750 H    3428  WAT3428     0.2052
  10281  H2       -11.1270   28.5400   25.1810 H    3428  WAT3428     0.2052
  10282  O        -14.8740   19.2020   24.8210 O.3  3429  WAT3429    -0.4105
  10283  H1       -15.0030   19.1930   25.7700 H    3429  WAT3429     0.2052
  10284  H2       -15.6980   19.5400   24.4700 H    3429  WAT3429     0.2052
  10285  O         -3.0150   22.4090   22.8410 O.3  3430  WAT3430    -0.4105
  10286  H1        -3.6430   22.5130   22.1270 H    3430  WAT3430     0.2052
  10287  H2        -3.5090   22.6280   23.6300 H    3430  WAT3430     0.2052
  10288  O        -11.0460   24.6870   24.2570 O.3  3431  WAT3431    -0.4105
  10289  H1       -11.7550   25.1560   24.6980 H    3431  WAT3431     0.2052
  10290  H2       -10.7620   24.0290   24.8910 H    3431  WAT3431     0.2052
  10291  O         -7.0150   21.4120   25.6960 O.3  3432  WAT3432    -0.4105
  10292  H1        -7.1380   21.4310   24.7470 H    3432  WAT3432     0.2052
  10293  H2        -6.0660   21.4600   25.8160 H    3432  WAT3432     0.2052
  10294  O        -12.8430   22.9960   21.6320 O.3  3433  WAT3433    -0.4105
  10295  H1       -11.9940   23.4330   21.5660 H    3433  WAT3433     0.2052
  10296  H2       -13.2100   23.3080   22.4590 H    3433  WAT3433     0.2052
  10297  O         -3.9220   27.5670   26.5450 O.3  3434  WAT3434    -0.4105
  10298  H1        -4.8630   27.5820   26.7200 H    3434  WAT3434     0.2052
  10299  H2        -3.6070   26.7810   26.9910 H    3434  WAT3434     0.2052
  10300  O        -13.9440   29.2490   20.1050 O.3  3435  WAT3435    -0.4105
  10301  H1       -13.1770   29.1370   20.6680 H    3435  WAT3435     0.2052
  10302  H2       -13.8660   28.5530   19.4530 H    3435  WAT3435     0.2052
  10303  O        -15.2490   26.6810   20.7890 O.3  3436  WAT3436    -0.4105
  10304  H1       -15.1690   25.7340   20.9000 H    3436  WAT3436     0.2052
  10305  H2       -14.3570   27.0120   20.8950 H    3436  WAT3436     0.2052
  10306  O        -11.9120   29.2450   22.0790 O.3  3437  WAT3437    -0.4105
  10307  H1       -11.4900   29.0790   22.9230 H    3437  WAT3437     0.2052
  10308  H2       -11.7870   28.4350   21.5850 H    3437  WAT3437     0.2052
  10309  O         -9.3990   28.2690   19.3270 O.3  3438  WAT3438    -0.4105
  10310  H1        -8.8780   27.5540   18.9610 H    3438  WAT3438     0.2052
  10311  H2        -8.7520   28.9080   19.6270 H    3438  WAT3438     0.2052
  10312  O        -13.0160   25.3190   19.0250 O.3  3439  WAT3439    -0.4105
  10313  H1       -13.2170   24.4550   19.3870 H    3439  WAT3439     0.2052
  10314  H2       -13.1870   25.2320   18.0870 H    3439  WAT3439     0.2052
  10315  O         -5.5370   20.1300   21.5540 O.3  3440  WAT3440    -0.4105
  10316  H1        -5.2570   19.2860   21.9100 H    3440  WAT3440     0.2052
  10317  H2        -6.3100   20.3620   22.0680 H    3440  WAT3440     0.2052
  10318  O        -14.2180   22.4190   19.0130 O.3  3441  WAT3441    -0.4105
  10319  H1       -13.9150   22.4260   18.1050 H    3441  WAT3441     0.2052
  10320  H2       -13.4780   22.0690   19.5100 H    3441  WAT3441     0.2052
  10321  O        -10.9990   21.3620   19.9990 O.3  3442  WAT3442    -0.4105
  10322  H1       -11.3470   20.6850   19.4190 H    3442  WAT3442     0.2052
  10323  H2       -10.7980   20.9010   20.8130 H    3442  WAT3442     0.2052
  10324  O        -17.6590   27.8910   26.3950 O.3  3443  WAT3443    -0.4105
  10325  H1       -18.3140   27.6220   25.7510 H    3443  WAT3443     0.2052
  10326  H2       -16.8210   27.7810   25.9450 H    3443  WAT3443     0.2052
  10327  O         -4.7090   22.6850   20.6170 O.3  3444  WAT3444    -0.4105
  10328  H1        -4.2910   22.4980   19.7770 H    3444  WAT3444     0.2052
  10329  H2        -5.0160   21.8330   20.9270 H    3444  WAT3444     0.2052
  10330  O         -1.2100   27.5980   24.3150 O.3  3445  WAT3445    -0.4105
  10331  H1        -1.5860   26.8300   23.8830 H    3445  WAT3445     0.2052
  10332  H2        -1.9400   27.9800   24.8020 H    3445  WAT3445     0.2052
  10333  O        -18.4450   25.1010   22.3380 O.3  3446  WAT3446    -0.4105
  10334  H1       -19.3480   25.3640   22.1630 H    3446  WAT3446     0.2052
  10335  H2       -17.9610   25.3720   21.5580 H    3446  WAT3446     0.2052
  10336  O         -1.9350   25.8230   27.6150 O.3  3447  WAT3447    -0.4105
  10337  H1        -1.4120   25.3300   26.9840 H    3447  WAT3447     0.2052
  10338  H2        -1.3490   25.9580   28.3600 H    3447  WAT3447     0.2052
  10339  O        -15.9020   24.1570   20.2470 O.3  3448  WAT3448    -0.4105
  10340  H1       -15.1930   23.7360   19.7620 H    3448  WAT3448     0.2052
  10341  H2       -16.6180   24.2250   19.6150 H    3448  WAT3448     0.2052
  10342  O        -16.2550   20.2110   19.2870 O.3  3449  WAT3449    -0.4105
  10343  H1       -15.5320   20.7520   19.6060 H    3449  WAT3449     0.2052
  10344  H2       -15.9820   19.9380   18.4120 H    3449  WAT3449     0.2052
  10345  O         -2.4450   25.0810   23.5550 O.3  3450  WAT3450    -0.4105
  10346  H1        -1.9490   24.8480   24.3390 H    3450  WAT3450     0.2052
  10347  H2        -2.6440   24.2420   23.1380 H    3450  WAT3450     0.2052
  10348  O        -16.5650   19.4620   29.1900 O.3  3451  WAT3451    -0.4105
  10349  H1       -15.9180   18.9120   28.7490 H    3451  WAT3451     0.2052
  10350  H2       -16.1450   19.7160   30.0110 H    3451  WAT3451     0.2052
  10351  O         -1.0170   23.7170   26.0880 O.3  3452  WAT3452    -0.4105
  10352  H1        -1.1270   23.5620   27.0270 H    3452  WAT3452     0.2052
  10353  H2        -0.2560   23.1890   25.8460 H    3452  WAT3452     0.2052
  10354  O         -0.1280   21.5480   19.3290 O.3  3453  WAT3453    -0.4105
  10355  H1         0.7970   21.4160   19.1210 H    3453  WAT3453     0.2052
  10356  H2        -0.1500   21.6270   20.2830 H    3453  WAT3453     0.2052
  10357  O         -0.0540   22.3190   21.9550 O.3  3454  WAT3454    -0.4105
  10358  H1        -0.8490   22.2530   22.4840 H    3454  WAT3454     0.2052
  10359  H2         0.1510   23.2540   21.9430 H    3454  WAT3454     0.2052
  10360  O         -3.6220   20.6480   28.4040 O.3  3455  WAT3455    -0.4105
  10361  H1        -3.1810   20.5930   27.5570 H    3455  WAT3455     0.2052
  10362  H2        -3.8910   21.5640   28.4760 H    3455  WAT3455     0.2052
  10363  O         -1.7580   20.2800   26.4150 O.3  3456  WAT3456    -0.4105
  10364  H1        -1.8190   19.3360   26.2680 H    3456  WAT3456     0.2052
  10365  H2        -0.9790   20.3880   26.9610 H    3456  WAT3456     0.2052
  10366  O        -16.8300   20.2510   22.8810 O.3  3457  WAT3457    -0.4105
  10367  H1       -16.0720   20.3640   22.3070 H    3457  WAT3457     0.2052
  10368  H2       -17.2920   21.0880   22.8350 H    3457  WAT3457     0.2052
  10369  O        -10.2880   22.3650   25.8710 O.3  3458  WAT3458    -0.4105
  10370  H1       -11.1010   21.9900   25.5310 H    3458  WAT3458     0.2052
  10371  H2        -9.7840   21.6090   26.1730 H    3458  WAT3458     0.2052
  10372  O         -5.7860   19.0290   27.1090 O.3  3459  WAT3459    -0.4105
  10373  H1        -5.1830   19.6010   27.5840 H    3459  WAT3459     0.2052
  10374  H2        -6.5270   19.5930   26.8870 H    3459  WAT3459     0.2052
  10375  O         -2.6430   19.4310   22.3840 O.3  3460  WAT3460    -0.4105
  10376  H1        -2.4470   20.3290   22.6500 H    3460  WAT3460     0.2052
  10377  H2        -3.4300   19.2000   22.8770 H    3460  WAT3460     0.2052
  10378  O        -14.4570   20.7770   21.4210 O.3  3461  WAT3461    -0.4105
  10379  H1       -13.9280   19.9900   21.2920 H    3461  WAT3461     0.2052
  10380  H2       -13.8250   21.4560   21.6550 H    3461  WAT3461     0.2052
  10381  O        -12.2640   20.5150   24.4760 O.3  3462  WAT3462    -0.4105
  10382  H1       -12.8930   19.8130   24.6430 H    3462  WAT3462     0.2052
  10383  H2       -12.8030   21.2750   24.2590 H    3462  WAT3462     0.2052
  10384  O         -6.6310   27.2280    7.8520 O.3  3463  WAT3463    -0.4105
  10385  H1        -6.7110   26.3130    7.5820 H    3463  WAT3463     0.2052
  10386  H2        -7.0440   27.7240    7.1460 H    3463  WAT3463     0.2052
  10387  O         -8.4990   29.0060    9.7330 O.3  3464  WAT3464    -0.4105
  10388  H1        -9.2750   28.5260   10.0230 H    3464  WAT3464     0.2052
  10389  H2        -7.8480   28.3260    9.5590 H    3464  WAT3464     0.2052
  10390  O        -14.4820   29.3180   10.6110 O.3  3465  WAT3465    -0.4105
  10391  H1       -15.3140   29.0620   11.0110 H    3465  WAT3465     0.2052
  10392  H2       -13.8740   29.3890   11.3470 H    3465  WAT3465     0.2052
  10393  O        -16.0730   24.2780    4.3950 O.3  3466  WAT3466    -0.4105
  10394  H1       -16.9610   24.6190    4.2930 H    3466  WAT3466     0.2052
  10395  H2       -15.7890   24.0780    3.5030 H    3466  WAT3466     0.2052
  10396  O        -18.1100   26.8780   10.2790 O.3  3467  WAT3467    -0.4105
  10397  H1       -17.5380   26.1110   10.2800 H    3467  WAT3467     0.2052
  10398  H2       -18.1100   27.1770    9.3700 H    3467  WAT3467     0.2052
  10399  O        -16.8670   22.2870   12.0660 O.3  3468  WAT3468    -0.4105
  10400  H1       -17.0470   21.3890   12.3460 H    3468  WAT3468     0.2052
  10401  H2       -17.2690   22.8340   12.7410 H    3468  WAT3468     0.2052
  10402  O         -8.0270   24.4880    9.9670 O.3  3469  WAT3469    -0.4105
  10403  H1        -7.6510   23.6150    9.8550 H    3469  WAT3469     0.2052
  10404  H2        -8.1250   24.8240    9.0760 H    3469  WAT3469     0.2052
  10405  O        -13.8970   22.8610    5.4290 O.3  3470  WAT3470    -0.4105
  10406  H1       -13.7900   23.7610    5.7360 H    3470  WAT3470     0.2052
  10407  H2       -14.8080   22.8130    5.1380 H    3470  WAT3470     0.2052
  10408  O         -4.2450   21.9830    6.9000 O.3  3471  WAT3471    -0.4105
  10409  H1        -3.4240   21.4930    6.9430 H    3471  WAT3471     0.2052
  10410  H2        -4.2120   22.5730    7.6530 H    3471  WAT3471     0.2052
  10411  O        -16.2490   24.7830   10.6740 O.3  3472  WAT3472    -0.4105
  10412  H1       -15.5680   25.0470   11.2930 H    3472  WAT3472     0.2052
  10413  H2       -16.5640   23.9430   11.0080 H    3472  WAT3472     0.2052
  10414  O        -12.0560   25.8300    9.7620 O.3  3473  WAT3473    -0.4105
  10415  H1       -11.5480   26.3280   10.4020 H    3473  WAT3473     0.2052
  10416  H2       -11.5250   25.0530    9.5850 H    3473  WAT3473     0.2052
  10417  O          0.0450   24.0000   13.4640 O.3  3474  WAT3474    -0.4105
  10418  H1        -0.6600   24.3880   12.9460 H    3474  WAT3474     0.2052
  10419  H2         0.3110   24.6950   14.0670 H    3474  WAT3474     0.2052
  10420  O        -13.7730   20.4690   14.0280 O.3  3475  WAT3475    -0.4105
  10421  H1       -13.7710   20.9870   13.2220 H    3475  WAT3475     0.2052
  10422  H2       -14.6020   19.9920   14.0050 H    3475  WAT3475     0.2052
  10423  O         -4.0090   23.9230    9.6730 O.3  3476  WAT3476    -0.4105
  10424  H1        -4.7130   24.2120   10.2530 H    3476  WAT3476     0.2052
  10425  H2        -3.6480   24.7330    9.3130 H    3476  WAT3476     0.2052
  10426  O        -14.0910   22.1800   12.0350 O.3  3477  WAT3477    -0.4105
  10427  H1       -13.7490   23.0250   11.7400 H    3477  WAT3477     0.2052
  10428  H2       -15.0290   22.3290   12.1510 H    3477  WAT3477     0.2052
  10429  O         -0.9400   23.3690   10.0640 O.3  3478  WAT3478    -0.4105
  10430  H1        -1.8880   23.4030   10.1950 H    3478  WAT3478     0.2052
  10431  H2        -0.6150   24.1830   10.4490 H    3478  WAT3478     0.2052
  10432  O        -10.4080   19.6690    8.3590 O.3  3479  WAT3479    -0.4105
  10433  H1       -10.1010   19.1130    7.6430 H    3479  WAT3479     0.2052
  10434  H2       -11.3380   19.8030    8.1770 H    3479  WAT3479     0.2052
  10435  O         -8.0200   27.7330    5.0950 O.3  3480  WAT3480    -0.4105
  10436  H1        -8.9470   27.6670    5.3240 H    3480  WAT3480     0.2052
  10437  H2        -7.8680   28.6710    4.9810 H    3480  WAT3480     0.2052
  10438  O         -8.0330   24.0050    2.0920 O.3  3481  WAT3481    -0.4105
  10439  H1        -8.9730   24.1670    2.1770 H    3481  WAT3481     0.2052
  10440  H2        -7.7150   24.7240    1.5460 H    3481  WAT3481     0.2052
  10441  O         -1.5120   28.6870   12.0700 O.3  3482  WAT3482    -0.4105
  10442  H1        -2.3400   28.7560   11.5950 H    3482  WAT3482     0.2052
  10443  H2        -0.9170   29.2720   11.6020 H    3482  WAT3482     0.2052
  10444  O         -3.9900   29.2960    5.5990 O.3  3483  WAT3483    -0.4105
  10445  H1        -4.6090   28.9570    4.9520 H    3483  WAT3483     0.2052
  10446  H2        -4.0080   28.6510    6.3070 H    3483  WAT3483     0.2052
  10447  O         -4.5480   25.4740   13.0160 O.3  3484  WAT3484    -0.4105
  10448  H1        -4.9610   26.2990   13.2700 H    3484  WAT3484     0.2052
  10449  H2        -5.2800   24.8880   12.8230 H    3484  WAT3484     0.2052
  10450  O        -12.4140   28.2600    7.8770 O.3  3485  WAT3485    -0.4105
  10451  H1       -12.8190   27.5480    7.3820 H    3485  WAT3485     0.2052
  10452  H2       -12.3280   27.9150    8.7660 H    3485  WAT3485     0.2052
  10453  O        -13.7020   25.0340   11.6570 O.3  3486  WAT3486    -0.4105
  10454  H1       -13.1500   25.1440   10.8830 H    3486  WAT3486     0.2052
  10455  H2       -13.1870   25.4080   12.3730 H    3486  WAT3486     0.2052
  10456  O         -5.8140   28.5340    2.6060 O.3  3487  WAT3487    -0.4105
  10457  H1        -5.3750   27.6960    2.4600 H    3487  WAT3487     0.2052
  10458  H2        -5.1010   29.1670    2.6930 H    3487  WAT3487     0.2052
  10459  O        -14.0270   28.5560   15.2680 O.3  3488  WAT3488    -0.4105
  10460  H1       -14.1670   29.4280   15.6370 H    3488  WAT3488     0.2052
  10461  H2       -14.9090   28.2130   15.1230 H    3488  WAT3488     0.2052
  10462  O         -2.2320   19.7880    0.9200 O.3  3489  WAT3489    -0.4105
  10463  H1        -2.5450   19.8810    1.8200 H    3489  WAT3489     0.2052
  10464  H2        -1.4710   20.3670    0.8700 H    3489  WAT3489     0.2052
  10465  O        -15.7140   27.1540    5.3780 O.3  3490  WAT3490    -0.4105
  10466  H1       -15.8340   27.8810    4.7660 H    3490  WAT3490     0.2052
  10467  H2       -16.0240   26.3850    4.9010 H    3490  WAT3490     0.2052
  10468  O         -1.0220   24.5260   16.8980 O.3  3491  WAT3491    -0.4105
  10469  H1        -1.6380   25.0340   16.3690 H    3491  WAT3491     0.2052
  10470  H2        -1.3420   23.6250   16.8400 H    3491  WAT3491     0.2052
  10471  O        -13.2480   20.4980    8.7600 O.3  3492  WAT3492    -0.4105
  10472  H1       -13.6910   21.2790    8.4290 H    3492  WAT3492     0.2052
  10473  H2       -12.6890   20.8210    9.4680 H    3492  WAT3492     0.2052
  10474  O         -8.9610   23.3650   14.3640 O.3  3493  WAT3493    -0.4105
  10475  H1        -9.4230   23.5730   15.1760 H    3493  WAT3493     0.2052
  10476  H2        -9.3630   22.5510   14.0610 H    3493  WAT3493     0.2052
  10477  O         -3.9600   24.5860   15.4940 O.3  3494  WAT3494    -0.4105
  10478  H1        -4.8110   24.2860   15.8150 H    3494  WAT3494     0.2052
  10479  H2        -4.1200   24.8300   14.5820 H    3494  WAT3494     0.2052
  10480  O         -6.8650   26.0860   17.5930 O.3  3495  WAT3495    -0.4105
  10481  H1        -6.5400   25.2520   17.2540 H    3495  WAT3495     0.2052
  10482  H2        -6.0770   26.6090   17.7410 H    3495  WAT3495     0.2052
  10483  O        -10.1320   20.1190    3.6410 O.3  3496  WAT3496    -0.4105
  10484  H1       -10.7560   20.1150    4.3660 H    3496  WAT3496     0.2052
  10485  H2       -10.2190   19.2520    3.2450 H    3496  WAT3496     0.2052
  10486  O        -11.2100   21.0430   10.6190 O.3  3497  WAT3497    -0.4105
  10487  H1       -10.9130   21.9490   10.5390 H    3497  WAT3497     0.2052
  10488  H2       -10.6620   20.5550   10.0050 H    3497  WAT3497     0.2052
  10489  O        -13.4560   25.6210    6.4890 O.3  3498  WAT3498    -0.4105
  10490  H1       -13.6820   25.4050    7.3930 H    3498  WAT3498     0.2052
  10491  H2       -14.2370   26.0540    6.1430 H    3498  WAT3498     0.2052
  10492  O         -6.2260   25.6280    5.0880 O.3  3499  WAT3499    -0.4105
  10493  H1        -6.8260   26.3510    4.9040 H    3499  WAT3499     0.2052
  10494  H2        -5.6790   25.5650    4.3050 H    3499  WAT3499     0.2052
  10495  O        -11.0160   26.5200   17.1550 O.3  3500  WAT3500    -0.4105
  10496  H1       -11.1120   25.5790   17.0050 H    3500  WAT3500     0.2052
  10497  H2       -10.1730   26.7410   16.7590 H    3500  WAT3500     0.2052
  10498  O         -7.6200   24.2640    7.1180 O.3  3501  WAT3501    -0.4105
  10499  H1        -7.2270   24.5810    6.3050 H    3501  WAT3501     0.2052
  10500  H2        -7.2580   23.3850    7.2320 H    3501  WAT3501     0.2052
  10501  O        -15.8850   22.9310   15.3080 O.3  3502  WAT3502    -0.4105
  10502  H1       -16.2790   23.7790   15.5150 H    3502  WAT3502     0.2052
  10503  H2       -16.5730   22.2940   15.4990 H    3502  WAT3502     0.2052
  10504  O         -9.3110   23.0150   18.3780 O.3  3503  WAT3503    -0.4105
  10505  H1       -10.0010   22.8220   19.0120 H    3503  WAT3503     0.2052
  10506  H2        -8.5680   23.2980   18.9100 H    3503  WAT3503     0.2052
  10507  O        -18.5840   20.8540    9.3410 O.3  3504  WAT3504    -0.4105
  10508  H1       -18.8720   21.4240   10.0530 H    3504  WAT3504     0.2052
  10509  H2       -17.8390   20.3750    9.7040 H    3504  WAT3504     0.2052
  10510  O        -18.3970   24.7960    0.5510 O.3  3505  WAT3505    -0.4105
  10511  H1       -18.4790   25.7390    0.6930 H    3505  WAT3505     0.2052
  10512  H2       -18.7480   24.6540   -0.3280 H    3505  WAT3505     0.2052
  10513  O         -7.0340   26.8550   11.2130 O.3  3506  WAT3506    -0.4105
  10514  H1        -7.7660   27.3630   11.5620 H    3506  WAT3506     0.2052
  10515  H2        -7.4320   26.0380   10.9120 H    3506  WAT3506     0.2052
  10516  O        -10.5970   23.5300    9.6180 O.3  3507  WAT3507    -0.4105
  10517  H1       -10.5930   23.0890    8.7690 H    3507  WAT3507     0.2052
  10518  H2        -9.7020   23.8520    9.7250 H    3507  WAT3507     0.2052
  10519  O        -14.7460   23.4130    8.5780 O.3  3508  WAT3508    -0.4105
  10520  H1       -15.0860   23.8900    9.3340 H    3508  WAT3508     0.2052
  10521  H2       -15.5090   22.9590    8.2180 H    3508  WAT3508     0.2052
  10522  O        -10.5350   24.5310    2.6090 O.3  3509  WAT3509    -0.4105
  10523  H1       -10.4130   24.4900    3.5580 H    3509  WAT3509     0.2052
  10524  H2       -10.9200   25.3940    2.4540 H    3509  WAT3509     0.2052
  10525  O         -6.5720   22.3080   10.6250 O.3  3510  WAT3510    -0.4105
  10526  H1        -6.5550   22.7590   11.4690 H    3510  WAT3510     0.2052
  10527  H2        -6.8200   21.4090   10.8390 H    3510  WAT3510     0.2052
  10528  O        -11.5230   26.8410    2.0070 O.3  3511  WAT3511    -0.4105
  10529  H1       -12.0910   26.3930    1.3810 H    3511  WAT3511     0.2052
  10530  H2       -10.8140   27.2010    1.4740 H    3511  WAT3511     0.2052
  10531  O         -3.1450   19.7210   16.4640 O.3  3512  WAT3512    -0.4105
  10532  H1        -2.8200   18.9900   16.9900 H    3512  WAT3512     0.2052
  10533  H2        -3.1090   19.4030   15.5620 H    3512  WAT3512     0.2052
  10534  O        -10.2960   27.5900   11.3650 O.3  3513  WAT3513    -0.4105
  10535  H1        -9.9290   27.1160   12.1110 H    3513  WAT3513     0.2052
  10536  H2       -10.4850   28.4640   11.7060 H    3513  WAT3513     0.2052
  10537  O        -17.4320   22.3350    7.4940 O.3  3514  WAT3514    -0.4105
  10538  H1       -17.7170   21.9700    8.3320 H    3514  WAT3514     0.2052
  10539  H2       -17.4940   21.6030    6.8800 H    3514  WAT3514     0.2052
  10540  O        -12.5060   26.6310   13.6830 O.3  3515  WAT3515    -0.4105
  10541  H1       -12.8100   27.5100   13.9080 H    3515  WAT3515     0.2052
  10542  H2       -11.5510   26.6910   13.7190 H    3515  WAT3515     0.2052
  10543  O         -7.7580   21.2270    4.2150 O.3  3516  WAT3516    -0.4105
  10544  H1        -8.5720   20.7290    4.1400 H    3516  WAT3516     0.2052
  10545  H2        -7.9520   22.0670    3.7990 H    3516  WAT3516     0.2052
  10546  O         -5.0430   25.5990    2.5120 O.3  3517  WAT3517    -0.4105
  10547  H1        -4.1550   25.9110    2.3370 H    3517  WAT3517     0.2052
  10548  H2        -5.0730   24.7270    2.1200 H    3517  WAT3517     0.2052
  10549  O        -16.4500   27.4710   14.8300 O.3  3518  WAT3518    -0.4105
  10550  H1       -16.8080   28.1370   15.4180 H    3518  WAT3518     0.2052
  10551  H2       -16.7440   26.6400   15.2020 H    3518  WAT3518     0.2052
  10552  O        -13.2480   27.9300   17.7140 O.3  3519  WAT3519    -0.4105
  10553  H1       -13.5480   28.0750   16.8170 H    3519  WAT3519     0.2052
  10554  H2       -12.4770   27.3700   17.6220 H    3519  WAT3519     0.2052
  10555  O         -2.7720   26.9110    1.9800 O.3  3520  WAT3520    -0.4105
  10556  H1        -2.8550   27.3420    1.1290 H    3520  WAT3520     0.2052
  10557  H2        -2.0520   27.3700    2.4120 H    3520  WAT3520     0.2052
  10558  O        -17.9390   27.4700    1.4540 O.3  3521  WAT3521    -0.4105
  10559  H1       -17.0690   27.7530    1.7370 H    3521  WAT3521     0.2052
  10560  H2       -18.4300   28.2840    1.3390 H    3521  WAT3521     0.2052
  10561  O        -10.7750   28.8580    5.5750 O.3  3522  WAT3522    -0.4105
  10562  H1       -10.3190   29.6680    5.8010 H    3522  WAT3522     0.2052
  10563  H2       -11.1270   28.5400    6.4060 H    3522  WAT3522     0.2052
  10564  O        -14.8740   19.2020    6.0470 O.3  3523  WAT3523    -0.4105
  10565  H1       -15.0030   19.1930    6.9950 H    3523  WAT3523     0.2052
  10566  H2       -15.6980   19.5400    5.6960 H    3523  WAT3523     0.2052
  10567  O        -17.8750   20.9610   15.5080 O.3  3524  WAT3524    -0.4105
  10568  H1       -18.5890   21.1600   16.1130 H    3524  WAT3524     0.2052
  10569  H2       -17.4550   20.1850   15.8790 H    3524  WAT3524     0.2052
  10570  O         -6.3810   23.4530   13.2580 O.3  3525  WAT3525    -0.4105
  10571  H1        -6.0130   22.6320   13.5860 H    3525  WAT3525     0.2052
  10572  H2        -7.2410   23.5130   13.6730 H    3525  WAT3525     0.2052
  10573  O         -3.0150   22.4090    4.0660 O.3  3526  WAT3526    -0.4105
  10574  H1        -3.6430   22.5130    3.3520 H    3526  WAT3526     0.2052
  10575  H2        -3.5090   22.6280    4.8560 H    3526  WAT3526     0.2052
  10576  O        -11.0460   24.6870    5.4820 O.3  3527  WAT3527    -0.4105
  10577  H1       -11.7550   25.1560    5.9240 H    3527  WAT3527     0.2052
  10578  H2       -10.7620   24.0290    6.1170 H    3527  WAT3527     0.2052
  10579  O         -9.4210   26.1070   13.4820 O.3  3528  WAT3528    -0.4105
  10580  H1        -8.9220   26.5810   14.1470 H    3528  WAT3528     0.2052
  10581  H2        -9.2780   25.1830   13.6890 H    3528  WAT3528     0.2052
  10582  O         -7.0150   21.4120    6.9220 O.3  3529  WAT3529    -0.4105
  10583  H1        -7.1380   21.4310    5.9730 H    3529  WAT3529     0.2052
  10584  H2        -6.0660   21.4600    7.0420 H    3529  WAT3529     0.2052
  10585  O        -12.8430   22.9960    2.8570 O.3  3530  WAT3530    -0.4105
  10586  H1       -11.9940   23.4330    2.7910 H    3530  WAT3530     0.2052
  10587  H2       -13.2100   23.3080    3.6850 H    3530  WAT3530     0.2052
  10588  O         -2.2140   22.3240   14.3240 O.3  3531  WAT3531    -0.4105
  10589  H1        -2.7170   23.0640   14.6640 H    3531  WAT3531     0.2052
  10590  H2        -1.3980   22.7120   14.0080 H    3531  WAT3531     0.2052
  10591  O         -3.9220   27.5670    7.7700 O.3  3532  WAT3532    -0.4105
  10592  H1        -4.8630   27.5820    7.9450 H    3532  WAT3532     0.2052
  10593  H2        -3.6070   26.7810    8.2170 H    3532  WAT3532     0.2052
  10594  O        -13.9440   29.2490    1.3310 O.3  3533  WAT3533    -0.4105
  10595  H1       -13.1770   29.1370    1.8930 H    3533  WAT3533     0.2052
  10596  H2       -13.8660   28.5530    0.6790 H    3533  WAT3533     0.2052
  10597  O        -15.2490   26.6810    2.0140 O.3  3534  WAT3534    -0.4105
  10598  H1       -15.1690   25.7340    2.1260 H    3534  WAT3534     0.2052
  10599  H2       -14.3570   27.0120    2.1200 H    3534  WAT3534     0.2052
  10600  O        -17.7220   28.5030   17.2500 O.3  3535  WAT3535    -0.4105
  10601  H1       -17.2180   27.9240   17.8210 H    3535  WAT3535     0.2052
  10602  H2       -18.4610   28.7870   17.7870 H    3535  WAT3535     0.2052
  10603  O        -15.6900   26.6460   18.1450 O.3  3536  WAT3536    -0.4105
  10604  H1       -15.6490   26.3470   19.0530 H    3536  WAT3536     0.2052
  10605  H2       -14.8350   27.0470   17.9860 H    3536  WAT3536     0.2052
  10606  O        -11.9120   29.2450    3.3050 O.3  3537  WAT3537    -0.4105
  10607  H1       -11.4900   29.0790    4.1480 H    3537  WAT3537     0.2052
  10608  H2       -11.7870   28.4350    2.8110 H    3537  WAT3537     0.2052
  10609  O        -13.7490   25.2250   16.1120 O.3  3538  WAT3538    -0.4105
  10610  H1       -14.2790   24.7340   15.4850 H    3538  WAT3538     0.2052
  10611  H2       -13.0800   25.6530   15.5780 H    3538  WAT3538     0.2052
  10612  O         -9.3990   28.2690    0.5530 O.3  3539  WAT3539    -0.4105
  10613  H1        -8.8780   27.5540    0.1870 H    3539  WAT3539     0.2052
  10614  H2        -8.7520   28.9080    0.8530 H    3539  WAT3539     0.2052
  10615  O         -4.8510   29.6920   15.8760 O.3  3540  WAT3540    -0.4105
  10616  H1        -4.4370   29.8470   16.7250 H    3540  WAT3540     0.2052
  10617  H2        -5.7860   29.8180   16.0390 H    3540  WAT3540     0.2052
  10618  O         -4.3790   27.0320   17.8800 O.3  3541  WAT3541    -0.4105
  10619  H1        -3.7970   26.2770   17.7920 H    3541  WAT3541     0.2052
  10620  H2        -4.2030   27.5620   17.1030 H    3541  WAT3541     0.2052
  10621  O        -13.2620   22.1910   16.1920 O.3  3542  WAT3542    -0.4105
  10622  H1       -13.3560   21.5730   15.4670 H    3542  WAT3542     0.2052
  10623  H2       -13.8420   22.9180   15.9650 H    3542  WAT3542     0.2052
  10624  O        -10.4960   20.7490   13.2250 O.3  3543  WAT3543    -0.4105
  10625  H1       -10.9440   20.7710   12.3790 H    3543  WAT3543     0.2052
  10626  H2       -11.1290   20.3510   13.8220 H    3543  WAT3543     0.2052
  10627  O         -7.7530   27.3760   15.2300 O.3  3544  WAT3544    -0.4105
  10628  H1        -7.6340   26.7800   15.9690 H    3544  WAT3544     0.2052
  10629  H2        -6.8940   27.4130   14.8100 H    3544  WAT3544     0.2052
  10630  O         -5.4140   27.9290   13.8060 O.3  3545  WAT3545    -0.4105
  10631  H1        -5.9410   28.4540   13.2030 H    3545  WAT3545     0.2052
  10632  H2        -5.0710   28.5620   14.4370 H    3545  WAT3545     0.2052
  10633  O        -13.0160   25.3190    0.2510 O.3  3546  WAT3546    -0.4105
  10634  H1       -13.2170   24.4550    0.6120 H    3546  WAT3546     0.2052
  10635  H2       -13.1870   25.2320   -0.6870 H    3546  WAT3546     0.2052
  10636  O        -10.9860   23.9180   16.4870 O.3  3547  WAT3547    -0.4105
  10637  H1       -10.3960   23.6090   17.1750 H    3547  WAT3547     0.2052
  10638  H2       -11.8040   23.4460   16.6430 H    3547  WAT3547     0.2052
  10639  O         -6.1670   23.5340   16.7210 O.3  3548  WAT3548    -0.4105
  10640  H1        -6.8560   22.8730   16.6560 H    3548  WAT3548     0.2052
  10641  H2        -5.4460   23.0880   17.1650 H    3548  WAT3548     0.2052
  10642  O         -5.5370   20.1300    2.7800 O.3  3549  WAT3549    -0.4105
  10643  H1        -5.2570   19.2860    3.1360 H    3549  WAT3549     0.2052
  10644  H2        -6.3100   20.3620    3.2940 H    3549  WAT3549     0.2052
  10645  O        -14.2180   22.4190    0.2390 O.3  3550  WAT3550    -0.4105
  10646  H1       -13.9150   22.4260   -0.6690 H    3550  WAT3550     0.2052
  10647  H2       -13.4780   22.0690    0.7360 H    3550  WAT3550     0.2052
  10648  O        -10.9990   21.3620    1.2240 O.3  3551  WAT3551    -0.4105
  10649  H1       -11.3470   20.6850    0.6450 H    3551  WAT3551     0.2052
  10650  H2       -10.7980   20.9010    2.0390 H    3551  WAT3551     0.2052
  10651  O        -17.6590   27.8910    7.6210 O.3  3552  WAT3552    -0.4105
  10652  H1       -18.3140   27.6220    6.9770 H    3552  WAT3552     0.2052
  10653  H2       -16.8210   27.7810    7.1710 H    3552  WAT3552     0.2052
  10654  O         -4.7090   22.6850    1.8430 O.3  3553  WAT3553    -0.4105
  10655  H1        -4.2910   22.4980    1.0020 H    3553  WAT3553     0.2052
  10656  H2        -5.0160   21.8330    2.1530 H    3553  WAT3553     0.2052
  10657  O         -1.2100   27.5980    5.5400 O.3  3554  WAT3554    -0.4105
  10658  H1        -1.5860   26.8300    5.1080 H    3554  WAT3554     0.2052
  10659  H2        -1.9400   27.9800    6.0280 H    3554  WAT3554     0.2052
  10660  O        -16.6210   28.2760   12.1610 O.3  3555  WAT3555    -0.4105
  10661  H1       -16.2540   28.1890   13.0410 H    3555  WAT3555     0.2052
  10662  H2       -17.1900   27.5130   12.0620 H    3555  WAT3555     0.2052
  10663  O         -1.8210   26.7450   15.1740 O.3  3556  WAT3556    -0.4105
  10664  H1        -2.0520   26.5160   14.2740 H    3556  WAT3556     0.2052
  10665  H2        -1.5600   27.6650   15.1290 H    3556  WAT3556     0.2052
  10666  O        -17.0690   25.1870   16.0670 O.3  3557  WAT3557    -0.4105
  10667  H1       -17.9640   25.1540   16.4060 H    3557  WAT3557     0.2052
  10668  H2       -16.5300   25.3860   16.8320 H    3557  WAT3557     0.2052
  10669  O         -3.3820   21.9700   17.9520 O.3  3558  WAT3558    -0.4105
  10670  H1        -2.5050   21.9790   18.3360 H    3558  WAT3558     0.2052
  10671  H2        -3.3700   21.2330   17.3410 H    3558  WAT3558     0.2052
  10672  O        -18.4450   25.1010    3.5630 O.3  3559  WAT3559    -0.4105
  10673  H1       -19.3480   25.3640    3.3890 H    3559  WAT3559     0.2052
  10674  H2       -17.9610   25.3720    2.7830 H    3559  WAT3559     0.2052
  10675  O         -1.9350   25.8230    8.8410 O.3  3560  WAT3560    -0.4105
  10676  H1        -1.4120   25.3300    8.2100 H    3560  WAT3560     0.2052
  10677  H2        -1.3490   25.9580    9.5860 H    3560  WAT3560     0.2052
  10678  O         -1.7560   25.9070   12.3630 O.3  3561  WAT3561    -0.4105
  10679  H1        -2.7060   25.8740   12.4770 H    3561  WAT3561     0.2052
  10680  H2        -1.5750   26.8170   12.1280 H    3561  WAT3561     0.2052
  10681  O        -15.9020   24.1570    1.4730 O.3  3562  WAT3562    -0.4105
  10682  H1       -15.1930   23.7360    0.9880 H    3562  WAT3562     0.2052
  10683  H2       -16.6180   24.2250    0.8410 H    3562  WAT3562     0.2052
  10684  O        -16.2550   20.2110    0.5130 O.3  3563  WAT3563    -0.4105
  10685  H1       -15.5320   20.7520    0.8310 H    3563  WAT3563     0.2052
  10686  H2       -15.9820   19.9380   -0.3630 H    3563  WAT3563     0.2052
  10687  O         -2.4450   25.0810    4.7800 O.3  3564  WAT3564    -0.4105
  10688  H1        -1.9490   24.8480    5.5650 H    3564  WAT3564     0.2052
  10689  H2        -2.6440   24.2420    4.3640 H    3564  WAT3564     0.2052
  10690  O        -16.5650   19.4620   10.4150 O.3  3565  WAT3565    -0.4105
  10691  H1       -15.9180   18.9120    9.9750 H    3565  WAT3565     0.2052
  10692  H2       -16.1450   19.7160   11.2370 H    3565  WAT3565     0.2052
  10693  O         -1.0170   23.7170    7.3140 O.3  3566  WAT3566    -0.4105
  10694  H1        -1.1270   23.5620    8.2520 H    3566  WAT3566     0.2052
  10695  H2        -0.2560   23.1890    7.0720 H    3566  WAT3566     0.2052
  10696  O         -2.6700   19.6560   13.7720 O.3  3567  WAT3567    -0.4105
  10697  H1        -2.0330   20.2700   14.1380 H    3567  WAT3567     0.2052
  10698  H2        -2.5230   19.6920   12.8270 H    3567  WAT3567     0.2052
  10699  O         -0.1280   21.5480    0.5550 O.3  3568  WAT3568    -0.4105
  10700  H1         0.7970   21.4160    0.3460 H    3568  WAT3568     0.2052
  10701  H2        -0.1500   21.6270    1.5080 H    3568  WAT3568     0.2052
  10702  O         -0.0540   22.3190    3.1800 O.3  3569  WAT3569    -0.4105
  10703  H1        -0.8490   22.2530    3.7100 H    3569  WAT3569     0.2052
  10704  H2         0.1510   23.2540    3.1690 H    3569  WAT3569     0.2052
  10705  O        -16.8120   19.6180   13.1580 O.3  3570  WAT3570    -0.4105
  10706  H1       -17.1610   20.0740   13.9240 H    3570  WAT3570     0.2052
  10707  H2       -17.1430   18.7230   13.2400 H    3570  WAT3570     0.2052
  10708  O         -9.3000   20.8090   16.6800 O.3  3571  WAT3571    -0.4105
  10709  H1        -9.3610   21.4010   17.4290 H    3571  WAT3571     0.2052
  10710  H2        -8.3600   20.7010   16.5350 H    3571  WAT3571     0.2052
  10711  O         -6.6620   20.4660   16.3190 O.3  3572  WAT3572    -0.4105
  10712  H1        -6.0480   20.7840   15.6570 H    3572  WAT3572     0.2052
  10713  H2        -6.1170   19.9810   16.9390 H    3572  WAT3572     0.2052
  10714  O        -16.1400   19.1450   16.4330 O.3  3573  WAT3573    -0.4105
  10715  H1       -15.5920   18.9640   15.6700 H    3573  WAT3573     0.2052
  10716  H2       -16.0750   18.3550   16.9690 H    3573  WAT3573     0.2052
  10717  O         -5.9210   19.0290   12.6460 O.3  3574  WAT3574    -0.4105
  10718  H1        -6.7950   19.3630   12.4430 H    3574  WAT3574     0.2052
  10719  H2        -6.0300   18.5560   13.4710 H    3574  WAT3574     0.2052
  10720  O         -5.0140   21.2360   14.0300 O.3  3575  WAT3575    -0.4105
  10721  H1        -5.3430   20.4210   13.6500 H    3575  WAT3575     0.2052
  10722  H2        -4.0660   21.1930   13.9070 H    3575  WAT3575     0.2052
  10723  O         -8.1740   19.9460   11.5850 O.3  3576  WAT3576    -0.4105
  10724  H1        -8.9570   20.4210   11.8650 H    3576  WAT3576     0.2052
  10725  H2        -8.4680   19.0410   11.4770 H    3576  WAT3576     0.2052
  10726  O         -3.6220   20.6480    9.6300 O.3  3577  WAT3577    -0.4105
  10727  H1        -3.1810   20.5930    8.7820 H    3577  WAT3577     0.2052
  10728  H2        -3.8910   21.5640    9.7010 H    3577  WAT3577     0.2052
  10729  O         -1.7580   20.2800    7.6410 O.3  3578  WAT3578    -0.4105
  10730  H1        -1.8190   19.3360    7.4940 H    3578  WAT3578     0.2052
  10731  H2        -0.9790   20.3880    8.1860 H    3578  WAT3578     0.2052
  10732  O        -16.8300   20.2510    4.1070 O.3  3579  WAT3579    -0.4105
  10733  H1       -16.0720   20.3640    3.5330 H    3579  WAT3579     0.2052
  10734  H2       -17.2920   21.0880    4.0610 H    3579  WAT3579     0.2052
  10735  O        -10.2880   22.3650    7.0970 O.3  3580  WAT3580    -0.4105
  10736  H1       -11.1010   21.9900    6.7560 H    3580  WAT3580     0.2052
  10737  H2        -9.7840   21.6090    7.3990 H    3580  WAT3580     0.2052
  10738  O         -5.7860   19.0290    8.3350 O.3  3581  WAT3581    -0.4105
  10739  H1        -5.1830   19.6010    8.8100 H    3581  WAT3581     0.2052
  10740  H2        -6.5270   19.5930    8.1130 H    3581  WAT3581     0.2052
  10741  O         -2.6430   19.4310    3.6090 O.3  3582  WAT3582    -0.4105
  10742  H1        -2.4470   20.3290    3.8760 H    3582  WAT3582     0.2052
  10743  H2        -3.4300   19.2000    4.1020 H    3582  WAT3582     0.2052
  10744  O        -14.4570   20.7770    2.6470 O.3  3583  WAT3583    -0.4105
  10745  H1       -13.9280   19.9900    2.5180 H    3583  WAT3583     0.2052
  10746  H2       -13.8250   21.4560    2.8800 H    3583  WAT3583     0.2052
  10747  O        -12.2640   20.5150    5.7010 O.3  3584  WAT3584    -0.4105
  10748  H1       -12.8930   19.8130    5.8680 H    3584  WAT3584     0.2052
  10749  H2       -12.8030   21.2750    5.4850 H    3584  WAT3584     0.2052
  10750  O        -12.1380   19.7930   18.1370 O.3  3585  WAT3585    -0.4105
  10751  H1       -12.4200   20.2960   17.3730 H    3585  WAT3585     0.2052
  10752  H2       -11.7560   18.9950   17.7710 H    3585  WAT3585     0.2052
  10753  O         -5.5360   19.2080   18.7150 O.3  3586  WAT3586    -0.4105
  10754  H1        -5.6500   19.5280   19.6100 H    3586  WAT3586     0.2052
  10755  H2        -4.7200   19.6100   18.4180 H    3586  WAT3586     0.2052
  10756  O         -6.6310   27.2280  -10.9220 O.3  3587  WAT3587    -0.4105
  10757  H1        -6.7110   26.3130  -11.1930 H    3587  WAT3587     0.2052
  10758  H2        -7.0440   27.7240  -11.6280 H    3587  WAT3587     0.2052
  10759  O         -8.4990   29.0060   -9.0410 O.3  3588  WAT3588    -0.4105
  10760  H1        -9.2750   28.5260   -8.7510 H    3588  WAT3588     0.2052
  10761  H2        -7.8480   28.3260   -9.2150 H    3588  WAT3588     0.2052
  10762  O        -14.4820   29.3180   -8.1630 O.3  3589  WAT3589    -0.4105
  10763  H1       -15.3140   29.0620   -7.7640 H    3589  WAT3589     0.2052
  10764  H2       -13.8740   29.3890   -7.4280 H    3589  WAT3589     0.2052
  10765  O        -16.0730   24.2780  -14.3790 O.3  3590  WAT3590    -0.4105
  10766  H1       -16.9610   24.6190  -14.4810 H    3590  WAT3590     0.2052
  10767  H2       -15.7890   24.0780  -15.2710 H    3590  WAT3590     0.2052
  10768  O        -18.1100   26.8780   -8.4950 O.3  3591  WAT3591    -0.4105
  10769  H1       -17.5380   26.1110   -8.4950 H    3591  WAT3591     0.2052
  10770  H2       -18.1100   27.1770   -9.4050 H    3591  WAT3591     0.2052
  10771  O        -16.8670   22.2870   -6.7080 O.3  3592  WAT3592    -0.4105
  10772  H1       -17.0470   21.3890   -6.4280 H    3592  WAT3592     0.2052
  10773  H2       -17.2690   22.8340   -6.0340 H    3592  WAT3592     0.2052
  10774  O         -8.0270   24.4880   -8.8070 O.3  3593  WAT3593    -0.4105
  10775  H1        -7.6510   23.6150   -8.9200 H    3593  WAT3593     0.2052
  10776  H2        -8.1250   24.8240   -9.6980 H    3593  WAT3593     0.2052
  10777  O        -13.8970   22.8610  -13.3450 O.3  3594  WAT3594    -0.4105
  10778  H1       -13.7900   23.7610  -13.0380 H    3594  WAT3594     0.2052
  10779  H2       -14.8080   22.8130  -13.6360 H    3594  WAT3594     0.2052
  10780  O         -4.2450   21.9830  -11.8740 O.3  3595  WAT3595    -0.4105
  10781  H1        -3.4240   21.4930  -11.8320 H    3595  WAT3595     0.2052
  10782  H2        -4.2120   22.5730  -11.1210 H    3595  WAT3595     0.2052
  10783  O        -16.2490   24.7830   -8.1000 O.3  3596  WAT3596    -0.4105
  10784  H1       -15.5680   25.0470   -7.4810 H    3596  WAT3596     0.2052
  10785  H2       -16.5640   23.9430   -7.7660 H    3596  WAT3596     0.2052
  10786  O        -12.0560   25.8300   -9.0130 O.3  3597  WAT3597    -0.4105
  10787  H1       -11.5480   26.3280   -8.3720 H    3597  WAT3597     0.2052
  10788  H2       -11.5250   25.0530   -9.1890 H    3597  WAT3597     0.2052
  10789  O          0.0450   24.0000   -5.3100 O.3  3598  WAT3598    -0.4105
  10790  H1        -0.6600   24.3880   -5.8280 H    3598  WAT3598     0.2052
  10791  H2         0.3110   24.6950   -4.7080 H    3598  WAT3598     0.2052
  10792  O        -13.7730   20.4690   -4.7460 O.3  3599  WAT3599    -0.4105
  10793  H1       -13.7710   20.9870   -5.5520 H    3599  WAT3599     0.2052
  10794  H2       -14.6020   19.9920   -4.7690 H    3599  WAT3599     0.2052
  10795  O         -4.0090   23.9230   -9.1010 O.3  3600  WAT3600    -0.4105
  10796  H1        -4.7130   24.2120   -8.5210 H    3600  WAT3600     0.2052
  10797  H2        -3.6480   24.7330   -9.4620 H    3600  WAT3600     0.2052
  10798  O        -14.0910   22.1800   -6.7390 O.3  3601  WAT3601    -0.4105
  10799  H1       -13.7490   23.0250   -7.0340 H    3601  WAT3601     0.2052
  10800  H2       -15.0290   22.3290   -6.6230 H    3601  WAT3601     0.2052
  10801  O         -0.9400   23.3690   -8.7110 O.3  3602  WAT3602    -0.4105
  10802  H1        -1.8880   23.4030   -8.5790 H    3602  WAT3602     0.2052
  10803  H2        -0.6150   24.1830   -8.3260 H    3602  WAT3602     0.2052
  10804  O        -10.4080   19.6690  -10.4150 O.3  3603  WAT3603    -0.4105
  10805  H1       -10.1010   19.1130  -11.1310 H    3603  WAT3603     0.2052
  10806  H2       -11.3380   19.8030  -10.5980 H    3603  WAT3603     0.2052
  10807  O         -8.0200   27.7330  -13.6790 O.3  3604  WAT3604    -0.4105
  10808  H1        -8.9470   27.6670  -13.4500 H    3604  WAT3604     0.2052
  10809  H2        -7.8680   28.6710  -13.7930 H    3604  WAT3604     0.2052
  10810  O         -8.0330   24.0050  -16.6820 O.3  3605  WAT3605    -0.4105
  10811  H1        -8.9730   24.1670  -16.5970 H    3605  WAT3605     0.2052
  10812  H2        -7.7150   24.7240  -17.2290 H    3605  WAT3605     0.2052
  10813  O         -1.5120   28.6870   -6.7040 O.3  3606  WAT3606    -0.4105
  10814  H1        -2.3400   28.7560   -7.1790 H    3606  WAT3606     0.2052
  10815  H2        -0.9170   29.2720   -7.1730 H    3606  WAT3606     0.2052
  10816  O         -3.9900   29.2960  -13.1750 O.3  3607  WAT3607    -0.4105
  10817  H1        -4.6090   28.9570  -13.8230 H    3607  WAT3607     0.2052
  10818  H2        -4.0080   28.6510  -12.4670 H    3607  WAT3607     0.2052
  10819  O         -4.5480   25.4740   -5.7590 O.3  3608  WAT3608    -0.4105
  10820  H1        -4.9610   26.2990   -5.5050 H    3608  WAT3608     0.2052
  10821  H2        -5.2800   24.8880   -5.9510 H    3608  WAT3608     0.2052
  10822  O        -12.4140   28.2600  -10.8970 O.3  3609  WAT3609    -0.4105
  10823  H1       -12.8190   27.5480  -11.3920 H    3609  WAT3609     0.2052
  10824  H2       -12.3280   27.9150  -10.0080 H    3609  WAT3609     0.2052
  10825  O        -13.7020   25.0340   -7.1170 O.3  3610  WAT3610    -0.4105
  10826  H1       -13.1500   25.1440   -7.8920 H    3610  WAT3610     0.2052
  10827  H2       -13.1870   25.4080   -6.4020 H    3610  WAT3610     0.2052
  10828  O         -5.8140   28.5340  -16.1680 O.3  3611  WAT3611    -0.4105
  10829  H1        -5.3750   27.6960  -16.3140 H    3611  WAT3611     0.2052
  10830  H2        -5.1010   29.1670  -16.0820 H    3611  WAT3611     0.2052
  10831  O        -14.0270   28.5560   -3.5070 O.3  3612  WAT3612    -0.4105
  10832  H1       -14.1670   29.4280   -3.1380 H    3612  WAT3612     0.2052
  10833  H2       -14.9090   28.2130   -3.6520 H    3612  WAT3612     0.2052
  10834  O         -2.2320   19.7880  -17.8540 O.3  3613  WAT3613    -0.4105
  10835  H1        -2.5450   19.8810  -16.9540 H    3613  WAT3613     0.2052
  10836  H2        -1.4710   20.3670  -17.9040 H    3613  WAT3613     0.2052
  10837  O        -15.7140   27.1540  -13.3960 O.3  3614  WAT3614    -0.4105
  10838  H1       -15.8340   27.8810  -14.0080 H    3614  WAT3614     0.2052
  10839  H2       -16.0240   26.3850  -13.8740 H    3614  WAT3614     0.2052
  10840  O         -1.0220   24.5260   -1.8770 O.3  3615  WAT3615    -0.4105
  10841  H1        -1.6380   25.0340   -2.4050 H    3615  WAT3615     0.2052
  10842  H2        -1.3420   23.6250   -1.9340 H    3615  WAT3615     0.2052
  10843  O        -13.2480   20.4980  -10.0140 O.3  3616  WAT3616    -0.4105
  10844  H1       -13.6910   21.2790  -10.3450 H    3616  WAT3616     0.2052
  10845  H2       -12.6890   20.8210   -9.3070 H    3616  WAT3616     0.2052
  10846  O         -8.9610   23.3650   -4.4100 O.3  3617  WAT3617    -0.4105
  10847  H1        -9.4230   23.5730   -3.5980 H    3617  WAT3617     0.2052
  10848  H2        -9.3630   22.5510   -4.7130 H    3617  WAT3617     0.2052
  10849  O         -3.9600   24.5860   -3.2810 O.3  3618  WAT3618    -0.4105
  10850  H1        -4.8110   24.2860   -2.9600 H    3618  WAT3618     0.2052
  10851  H2        -4.1200   24.8300   -4.1920 H    3618  WAT3618     0.2052
  10852  O         -6.8650   26.0860   -1.1810 O.3  3619  WAT3619    -0.4105
  10853  H1        -6.5400   25.2520   -1.5210 H    3619  WAT3619     0.2052
  10854  H2        -6.0770   26.6090   -1.0330 H    3619  WAT3619     0.2052
  10855  O        -10.1320   20.1190  -15.1330 O.3  3620  WAT3620    -0.4105
  10856  H1       -10.7560   20.1150  -14.4080 H    3620  WAT3620     0.2052
  10857  H2       -10.2190   19.2520  -15.5300 H    3620  WAT3620     0.2052
  10858  O        -11.2100   21.0430   -8.1550 O.3  3621  WAT3621    -0.4105
  10859  H1       -10.9130   21.9490   -8.2360 H    3621  WAT3621     0.2052
  10860  H2       -10.6620   20.5550   -8.7690 H    3621  WAT3621     0.2052
  10861  O        -13.4560   25.6210  -12.2860 O.3  3622  WAT3622    -0.4105
  10862  H1       -13.6820   25.4050  -11.3810 H    3622  WAT3622     0.2052
  10863  H2       -14.2370   26.0540  -12.6310 H    3622  WAT3622     0.2052
  10864  O         -6.2260   25.6280  -13.6870 O.3  3623  WAT3623    -0.4105
  10865  H1        -6.8260   26.3510  -13.8700 H    3623  WAT3623     0.2052
  10866  H2        -5.6790   25.5650  -14.4690 H    3623  WAT3623     0.2052
  10867  O        -11.0160   26.5200   -1.6200 O.3  3624  WAT3624    -0.4105
  10868  H1       -11.1120   25.5790   -1.7700 H    3624  WAT3624     0.2052
  10869  H2       -10.1730   26.7410   -2.0150 H    3624  WAT3624     0.2052
  10870  O         -7.6200   24.2640  -11.6560 O.3  3625  WAT3625    -0.4105
  10871  H1        -7.2270   24.5810  -12.4700 H    3625  WAT3625     0.2052
  10872  H2        -7.2580   23.3850  -11.5420 H    3625  WAT3625     0.2052
  10873  O        -15.8850   22.9310   -3.4660 O.3  3626  WAT3626    -0.4105
  10874  H1       -16.2790   23.7790   -3.2590 H    3626  WAT3626     0.2052
  10875  H2       -16.5730   22.2940   -3.2760 H    3626  WAT3626     0.2052
  10876  O         -9.3110   23.0150   -0.3970 O.3  3627  WAT3627    -0.4105
  10877  H1       -10.0010   22.8220    0.2380 H    3627  WAT3627     0.2052
  10878  H2        -8.5680   23.2980    0.1360 H    3627  WAT3627     0.2052
  10879  O        -18.5840   20.8540   -9.4330 O.3  3628  WAT3628    -0.4105
  10880  H1       -18.8720   21.4240   -8.7210 H    3628  WAT3628     0.2052
  10881  H2       -17.8390   20.3750   -9.0700 H    3628  WAT3628     0.2052
  10882  O        -18.3970   24.7960  -18.2230 O.3  3629  WAT3629    -0.4105
  10883  H1       -18.4790   25.7390  -18.0820 H    3629  WAT3629     0.2052
  10884  H2       -18.7480   24.6540  -19.1020 H    3629  WAT3629     0.2052
  10885  O         -7.0340   26.8550   -7.5610 O.3  3630  WAT3630    -0.4105
  10886  H1        -7.7660   27.3630   -7.2120 H    3630  WAT3630     0.2052
  10887  H2        -7.4320   26.0380   -7.8620 H    3630  WAT3630     0.2052
  10888  O        -10.5970   23.5300   -9.1560 O.3  3631  WAT3631    -0.4105
  10889  H1       -10.5930   23.0890  -10.0060 H    3631  WAT3631     0.2052
  10890  H2        -9.7020   23.8520   -9.0490 H    3631  WAT3631     0.2052
  10891  O        -14.7460   23.4130  -10.1970 O.3  3632  WAT3632    -0.4105
  10892  H1       -15.0860   23.8900   -9.4400 H    3632  WAT3632     0.2052
  10893  H2       -15.5090   22.9590  -10.5570 H    3632  WAT3632     0.2052
  10894  O        -10.5350   24.5310  -16.1650 O.3  3633  WAT3633    -0.4105
  10895  H1       -10.4130   24.4900  -15.2170 H    3633  WAT3633     0.2052
  10896  H2       -10.9200   25.3940  -16.3210 H    3633  WAT3633     0.2052
  10897  O         -6.5720   22.3080   -8.1490 O.3  3634  WAT3634    -0.4105
  10898  H1        -6.5550   22.7590   -7.3050 H    3634  WAT3634     0.2052
  10899  H2        -6.8200   21.4090   -7.9360 H    3634  WAT3634     0.2052
  10900  O        -11.5230   26.8410  -16.7670 O.3  3635  WAT3635    -0.4105
  10901  H1       -12.0910   26.3930  -17.3930 H    3635  WAT3635     0.2052
  10902  H2       -10.8140   27.2010  -17.3010 H    3635  WAT3635     0.2052
  10903  O         -3.1450   19.7210   -2.3100 O.3  3636  WAT3636    -0.4105
  10904  H1        -2.8200   18.9900   -1.7850 H    3636  WAT3636     0.2052
  10905  H2        -3.1090   19.4030   -3.2120 H    3636  WAT3636     0.2052
  10906  O        -10.2960   27.5900   -7.4100 O.3  3637  WAT3637    -0.4105
  10907  H1        -9.9290   27.1160   -6.6630 H    3637  WAT3637     0.2052
  10908  H2       -10.4850   28.4640   -7.0690 H    3637  WAT3637     0.2052
  10909  O        -17.4320   22.3350  -11.2800 O.3  3638  WAT3638    -0.4105
  10910  H1       -17.7170   21.9700  -10.4420 H    3638  WAT3638     0.2052
  10911  H2       -17.4940   21.6030  -11.8940 H    3638  WAT3638     0.2052
  10912  O        -12.5060   26.6310   -5.0910 O.3  3639  WAT3639    -0.4105
  10913  H1       -12.8100   27.5100   -4.8660 H    3639  WAT3639     0.2052
  10914  H2       -11.5510   26.6910   -5.0550 H    3639  WAT3639     0.2052
  10915  O         -7.7580   21.2270  -14.5590 O.3  3640  WAT3640    -0.4105
  10916  H1        -8.5720   20.7290  -14.6340 H    3640  WAT3640     0.2052
  10917  H2        -7.9520   22.0670  -14.9750 H    3640  WAT3640     0.2052
  10918  O         -5.0430   25.5990  -16.2630 O.3  3641  WAT3641    -0.4105
  10919  H1        -4.1550   25.9110  -16.4380 H    3641  WAT3641     0.2052
  10920  H2        -5.0730   24.7270  -16.6550 H    3641  WAT3641     0.2052
  10921  O        -16.4500   27.4710   -3.9440 O.3  3642  WAT3642    -0.4105
  10922  H1       -16.8080   28.1370   -3.3570 H    3642  WAT3642     0.2052
  10923  H2       -16.7440   26.6400   -3.5730 H    3642  WAT3642     0.2052
  10924  O        -13.2480   27.9300   -1.0600 O.3  3643  WAT3643    -0.4105
  10925  H1       -13.5480   28.0750   -1.9570 H    3643  WAT3643     0.2052
  10926  H2       -12.4770   27.3700   -1.1530 H    3643  WAT3643     0.2052
  10927  O         -2.7720   26.9110  -16.7950 O.3  3644  WAT3644    -0.4105
  10928  H1        -2.8550   27.3420  -17.6450 H    3644  WAT3644     0.2052
  10929  H2        -2.0520   27.3700  -16.3620 H    3644  WAT3644     0.2052
  10930  O        -17.9390   27.4700  -17.3210 O.3  3645  WAT3645    -0.4105
  10931  H1       -17.0690   27.7530  -17.0370 H    3645  WAT3645     0.2052
  10932  H2       -18.4300   28.2840  -17.4360 H    3645  WAT3645     0.2052
  10933  O        -10.7750   28.8580  -13.2000 O.3  3646  WAT3646    -0.4105
  10934  H1       -10.3190   29.6680  -12.9740 H    3646  WAT3646     0.2052
  10935  H2       -11.1270   28.5400  -12.3680 H    3646  WAT3646     0.2052
  10936  O        -14.8740   19.2020  -12.7270 O.3  3647  WAT3647    -0.4105
  10937  H1       -15.0030   19.1930  -11.7790 H    3647  WAT3647     0.2052
  10938  H2       -15.6980   19.5400  -13.0780 H    3647  WAT3647     0.2052
  10939  O        -17.8750   20.9610   -3.2670 O.3  3648  WAT3648    -0.4105
  10940  H1       -18.5890   21.1600   -2.6620 H    3648  WAT3648     0.2052
  10941  H2       -17.4550   20.1850   -2.8950 H    3648  WAT3648     0.2052
  10942  O         -6.3810   23.4530   -5.5170 O.3  3649  WAT3649    -0.4105
  10943  H1        -6.0130   22.6320   -5.1890 H    3649  WAT3649     0.2052
  10944  H2        -7.2410   23.5130   -5.1010 H    3649  WAT3649     0.2052
  10945  O         -3.0150   22.4090  -14.7080 O.3  3650  WAT3650    -0.4105
  10946  H1        -3.6430   22.5130  -15.4220 H    3650  WAT3650     0.2052
  10947  H2        -3.5090   22.6280  -13.9180 H    3650  WAT3650     0.2052
  10948  O        -11.0460   24.6870  -13.2920 O.3  3651  WAT3651    -0.4105
  10949  H1       -11.7550   25.1560  -12.8510 H    3651  WAT3651     0.2052
  10950  H2       -10.7620   24.0290  -12.6580 H    3651  WAT3651     0.2052
  10951  O         -9.4210   26.1070   -5.2930 O.3  3652  WAT3652    -0.4105
  10952  H1        -8.9220   26.5810   -4.6280 H    3652  WAT3652     0.2052
  10953  H2        -9.2780   25.1830   -5.0860 H    3652  WAT3652     0.2052
  10954  O         -7.0150   21.4120  -11.8530 O.3  3653  WAT3653    -0.4105
  10955  H1        -7.1380   21.4310  -12.8020 H    3653  WAT3653     0.2052
  10956  H2        -6.0660   21.4600  -11.7330 H    3653  WAT3653     0.2052
  10957  O        -12.8430   22.9960  -15.9170 O.3  3654  WAT3654    -0.4105
  10958  H1       -11.9940   23.4330  -15.9830 H    3654  WAT3654     0.2052
  10959  H2       -13.2100   23.3080  -15.0900 H    3654  WAT3654     0.2052
  10960  O         -2.2140   22.3240   -4.4500 O.3  3655  WAT3655    -0.4105
  10961  H1        -2.7170   23.0640   -4.1110 H    3655  WAT3655     0.2052
  10962  H2        -1.3980   22.7120   -4.7660 H    3655  WAT3655     0.2052
  10963  O         -3.9220   27.5670  -11.0040 O.3  3656  WAT3656    -0.4105
  10964  H1        -4.8630   27.5820  -10.8290 H    3656  WAT3656     0.2052
  10965  H2        -3.6070   26.7810  -10.5580 H    3656  WAT3656     0.2052
  10966  O        -13.9440   29.2490  -17.4430 O.3  3657  WAT3657    -0.4105
  10967  H1       -13.1770   29.1370  -16.8810 H    3657  WAT3657     0.2052
  10968  H2       -13.8660   28.5530  -18.0960 H    3657  WAT3657     0.2052
  10969  O        -15.2490   26.6810  -16.7600 O.3  3658  WAT3658    -0.4105
  10970  H1       -15.1690   25.7340  -16.6480 H    3658  WAT3658     0.2052
  10971  H2       -14.3570   27.0120  -16.6540 H    3658  WAT3658     0.2052
  10972  O        -17.7220   28.5030   -1.5250 O.3  3659  WAT3659    -0.4105
  10973  H1       -17.2180   27.9240   -0.9530 H    3659  WAT3659     0.2052
  10974  H2       -18.4610   28.7870   -0.9870 H    3659  WAT3659     0.2052
  10975  O        -15.6900   26.6460   -0.6300 O.3  3660  WAT3660    -0.4105
  10976  H1       -15.6490   26.3470    0.2790 H    3660  WAT3660     0.2052
  10977  H2       -14.8350   27.0470   -0.7890 H    3660  WAT3660     0.2052
  10978  O        -11.9120   29.2450  -15.4690 O.3  3661  WAT3661    -0.4105
  10979  H1       -11.4900   29.0790  -14.6260 H    3661  WAT3661     0.2052
  10980  H2       -11.7870   28.4350  -15.9640 H    3661  WAT3661     0.2052
  10981  O        -13.7490   25.2250   -2.6620 O.3  3662  WAT3662    -0.4105
  10982  H1       -14.2790   24.7340   -3.2900 H    3662  WAT3662     0.2052
  10983  H2       -13.0800   25.6530   -3.1960 H    3662  WAT3662     0.2052
  10984  O         -9.3990   28.2690  -18.2210 O.3  3663  WAT3663    -0.4105
  10985  H1        -8.8780   27.5540  -18.5870 H    3663  WAT3663     0.2052
  10986  H2        -8.7520   28.9080  -17.9210 H    3663  WAT3663     0.2052
  10987  O         -4.8510   29.6920   -2.8980 O.3  3664  WAT3664    -0.4105
  10988  H1        -4.4370   29.8470   -2.0490 H    3664  WAT3664     0.2052
  10989  H2        -5.7860   29.8180   -2.7350 H    3664  WAT3664     0.2052
  10990  O         -4.3790   27.0320   -0.8940 O.3  3665  WAT3665    -0.4105
  10991  H1        -3.7970   26.2770   -0.9820 H    3665  WAT3665     0.2052
  10992  H2        -4.2030   27.5620   -1.6710 H    3665  WAT3665     0.2052
  10993  O        -13.2620   22.1910   -2.5820 O.3  3666  WAT3666    -0.4105
  10994  H1       -13.3560   21.5730   -3.3070 H    3666  WAT3666     0.2052
  10995  H2       -13.8420   22.9180   -2.8090 H    3666  WAT3666     0.2052
  10996  O        -10.4960   20.7490   -5.5500 O.3  3667  WAT3667    -0.4105
  10997  H1       -10.9440   20.7710   -6.3950 H    3667  WAT3667     0.2052
  10998  H2       -11.1290   20.3510   -4.9530 H    3667  WAT3667     0.2052
  10999  O         -7.7530   27.3760   -3.5450 O.3  3668  WAT3668    -0.4105
  11000  H1        -7.6340   26.7800   -2.8050 H    3668  WAT3668     0.2052
  11001  H2        -6.8940   27.4130   -3.9640 H    3668  WAT3668     0.2052
  11002  O         -5.4140   27.9290   -4.9680 O.3  3669  WAT3669    -0.4105
  11003  H1        -5.9410   28.4540   -5.5720 H    3669  WAT3669     0.2052
  11004  H2        -5.0710   28.5620   -4.3370 H    3669  WAT3669     0.2052
  11005  O        -13.0160   25.3190  -18.5230 O.3  3670  WAT3670    -0.4105
  11006  H1       -13.2170   24.4550  -18.1620 H    3670  WAT3670     0.2052
  11007  H2       -13.1870   25.2320  -19.4610 H    3670  WAT3670     0.2052
  11008  O        -10.9860   23.9180   -2.2870 O.3  3671  WAT3671    -0.4105
  11009  H1       -10.3960   23.6090   -1.5990 H    3671  WAT3671     0.2052
  11010  H2       -11.8040   23.4460   -2.1310 H    3671  WAT3671     0.2052
  11011  O         -6.1670   23.5340   -2.0540 O.3  3672  WAT3672    -0.4105
  11012  H1        -6.8560   22.8730   -2.1190 H    3672  WAT3672     0.2052
  11013  H2        -5.4460   23.0880   -1.6090 H    3672  WAT3672     0.2052
  11014  O         -5.5370   20.1300  -15.9950 O.3  3673  WAT3673    -0.4105
  11015  H1        -5.2570   19.2860  -15.6390 H    3673  WAT3673     0.2052
  11016  H2        -6.3100   20.3620  -15.4810 H    3673  WAT3673     0.2052
  11017  O        -14.2180   22.4190  -18.5360 O.3  3674  WAT3674    -0.4105
  11018  H1       -13.9150   22.4260  -19.4440 H    3674  WAT3674     0.2052
  11019  H2       -13.4780   22.0690  -18.0390 H    3674  WAT3674     0.2052
  11020  O        -10.9990   21.3620  -17.5500 O.3  3675  WAT3675    -0.4105
  11021  H1       -11.3470   20.6850  -18.1300 H    3675  WAT3675     0.2052
  11022  H2       -10.7980   20.9010  -16.7360 H    3675  WAT3675     0.2052
  11023  O        -17.6590   27.8910  -11.1540 O.3  3676  WAT3676    -0.4105
  11024  H1       -18.3140   27.6220  -11.7980 H    3676  WAT3676     0.2052
  11025  H2       -16.8210   27.7810  -11.6030 H    3676  WAT3676     0.2052
  11026  O         -4.7090   22.6850  -16.9320 O.3  3677  WAT3677    -0.4105
  11027  H1        -4.2910   22.4980  -17.7720 H    3677  WAT3677     0.2052
  11028  H2        -5.0160   21.8330  -16.6210 H    3677  WAT3677     0.2052
  11029  O         -1.2100   27.5980  -13.2340 O.3  3678  WAT3678    -0.4105
  11030  H1        -1.5860   26.8300  -13.6660 H    3678  WAT3678     0.2052
  11031  H2        -1.9400   27.9800  -12.7470 H    3678  WAT3678     0.2052
  11032  O        -16.6210   28.2760   -6.6130 O.3  3679  WAT3679    -0.4105
  11033  H1       -16.2540   28.1890   -5.7340 H    3679  WAT3679     0.2052
  11034  H2       -17.1900   27.5130   -6.7130 H    3679  WAT3679     0.2052
  11035  O         -1.8210   26.7450   -3.6000 O.3  3680  WAT3680    -0.4105
  11036  H1        -2.0520   26.5160   -4.5000 H    3680  WAT3680     0.2052
  11037  H2        -1.5600   27.6650   -3.6460 H    3680  WAT3680     0.2052
  11038  O        -17.0690   25.1870   -2.7070 O.3  3681  WAT3681    -0.4105
  11039  H1       -17.9640   25.1540   -2.3680 H    3681  WAT3681     0.2052
  11040  H2       -16.5300   25.3860   -1.9420 H    3681  WAT3681     0.2052
  11041  O         -3.3820   21.9700   -0.8220 O.3  3682  WAT3682    -0.4105
  11042  H1        -2.5050   21.9790   -0.4390 H    3682  WAT3682     0.2052
  11043  H2        -3.3700   21.2330   -1.4330 H    3682  WAT3682     0.2052
  11044  O        -18.4450   25.1010  -15.2110 O.3  3683  WAT3683    -0.4105
  11045  H1       -19.3480   25.3640  -15.3860 H    3683  WAT3683     0.2052
  11046  H2       -17.9610   25.3720  -15.9910 H    3683  WAT3683     0.2052
  11047  O         -1.9350   25.8230   -9.9330 O.3  3684  WAT3684    -0.4105
  11048  H1        -1.4120   25.3300  -10.5640 H    3684  WAT3684     0.2052
  11049  H2        -1.3490   25.9580   -9.1890 H    3684  WAT3684     0.2052
  11050  O         -1.7560   25.9070   -6.4110 O.3  3685  WAT3685    -0.4105
  11051  H1        -2.7060   25.8740   -6.2970 H    3685  WAT3685     0.2052
  11052  H2        -1.5750   26.8170   -6.6460 H    3685  WAT3685     0.2052
  11053  O        -15.9020   24.1570  -17.3020 O.3  3686  WAT3686    -0.4105
  11054  H1       -15.1930   23.7360  -17.7870 H    3686  WAT3686     0.2052
  11055  H2       -16.6180   24.2250  -17.9330 H    3686  WAT3686     0.2052
  11056  O        -16.2550   20.2110  -18.2610 O.3  3687  WAT3687    -0.4105
  11057  H1       -15.5320   20.7520  -17.9430 H    3687  WAT3687     0.2052
  11058  H2       -15.9820   19.9380  -19.1370 H    3687  WAT3687     0.2052
  11059  O         -2.4450   25.0810  -13.9940 O.3  3688  WAT3688    -0.4105
  11060  H1        -1.9490   24.8480  -13.2090 H    3688  WAT3688     0.2052
  11061  H2        -2.6440   24.2420  -14.4100 H    3688  WAT3688     0.2052
  11062  O        -16.5650   19.4620   -8.3590 O.3  3689  WAT3689    -0.4105
  11063  H1       -15.9180   18.9120   -8.8000 H    3689  WAT3689     0.2052
  11064  H2       -16.1450   19.7160   -7.5370 H    3689  WAT3689     0.2052
  11065  O         -1.0170   23.7170  -11.4600 O.3  3690  WAT3690    -0.4105
  11066  H1        -1.1270   23.5620  -10.5220 H    3690  WAT3690     0.2052
  11067  H2        -0.2560   23.1890  -11.7030 H    3690  WAT3690     0.2052
  11068  O         -2.6700   19.6560   -5.0020 O.3  3691  WAT3691    -0.4105
  11069  H1        -2.0330   20.2700   -4.6360 H    3691  WAT3691     0.2052
  11070  H2        -2.5230   19.6920   -5.9470 H    3691  WAT3691     0.2052
  11071  O         -0.1280   21.5480  -18.2200 O.3  3692  WAT3692    -0.4105
  11072  H1         0.7970   21.4160  -18.4280 H    3692  WAT3692     0.2052
  11073  H2        -0.1500   21.6270  -17.2660 H    3692  WAT3692     0.2052
  11074  O         -0.0540   22.3190  -15.5940 O.3  3693  WAT3693    -0.4105
  11075  H1        -0.8490   22.2530  -15.0650 H    3693  WAT3693     0.2052
  11076  H2         0.1510   23.2540  -15.6060 H    3693  WAT3693     0.2052
  11077  O        -16.8120   19.6180   -5.6170 O.3  3694  WAT3694    -0.4105
  11078  H1       -17.1610   20.0740   -4.8510 H    3694  WAT3694     0.2052
  11079  H2       -17.1430   18.7230   -5.5340 H    3694  WAT3694     0.2052
  11080  O         -9.3000   20.8090   -2.0950 O.3  3695  WAT3695    -0.4105
  11081  H1        -9.3610   21.4010   -1.3450 H    3695  WAT3695     0.2052
  11082  H2        -8.3600   20.7010   -2.2400 H    3695  WAT3695     0.2052
  11083  O         -6.6620   20.4660   -2.4550 O.3  3696  WAT3696    -0.4105
  11084  H1        -6.0480   20.7840   -3.1170 H    3696  WAT3696     0.2052
  11085  H2        -6.1170   19.9810   -1.8360 H    3696  WAT3696     0.2052
  11086  O        -16.1400   19.1450   -2.3410 O.3  3697  WAT3697    -0.4105
  11087  H1       -15.5920   18.9640   -3.1050 H    3697  WAT3697     0.2052
  11088  H2       -16.0750   18.3550   -1.8060 H    3697  WAT3697     0.2052
  11089  O         -5.9210   19.0290   -6.1280 O.3  3698  WAT3698    -0.4105
  11090  H1        -6.7950   19.3630   -6.3310 H    3698  WAT3698     0.2052
  11091  H2        -6.0300   18.5560   -5.3030 H    3698  WAT3698     0.2052
  11092  O         -5.0140   21.2360   -4.7440 O.3  3699  WAT3699    -0.4105
  11093  H1        -5.3430   20.4210   -5.1240 H    3699  WAT3699     0.2052
  11094  H2        -4.0660   21.1930   -4.8680 H    3699  WAT3699     0.2052
  11095  O         -8.1740   19.9460   -7.1890 O.3  3700  WAT3700    -0.4105
  11096  H1        -8.9570   20.4210   -6.9090 H    3700  WAT3700     0.2052
  11097  H2        -8.4680   19.0410   -7.2980 H    3700  WAT3700     0.2052
  11098  O         -3.6220   20.6480   -9.1440 O.3  3701  WAT3701    -0.4105
  11099  H1        -3.1810   20.5930   -9.9920 H    3701  WAT3701     0.2052
  11100  H2        -3.8910   21.5640   -9.0730 H    3701  WAT3701     0.2052
  11101  O         -1.7580   20.2800  -11.1330 O.3  3702  WAT3702    -0.4105
  11102  H1        -1.8190   19.3360  -11.2800 H    3702  WAT3702     0.2052
  11103  H2        -0.9790   20.3880  -10.5880 H    3702  WAT3702     0.2052
  11104  O        -16.8300   20.2510  -14.6680 O.3  3703  WAT3703    -0.4105
  11105  H1       -16.0720   20.3640  -15.2410 H    3703  WAT3703     0.2052
  11106  H2       -17.2920   21.0880  -14.7130 H    3703  WAT3703     0.2052
  11107  O        -10.2880   22.3650  -11.6780 O.3  3704  WAT3704    -0.4105
  11108  H1       -11.1010   21.9900  -12.0180 H    3704  WAT3704     0.2052
  11109  H2        -9.7840   21.6090  -11.3750 H    3704  WAT3704     0.2052
  11110  O         -5.7860   19.0290  -10.4390 O.3  3705  WAT3705    -0.4105
  11111  H1        -5.1830   19.6010   -9.9640 H    3705  WAT3705     0.2052
  11112  H2        -6.5270   19.5930  -10.6620 H    3705  WAT3705     0.2052
  11113  O         -2.6430   19.4310  -15.1650 O.3  3706  WAT3706    -0.4105
  11114  H1        -2.4470   20.3290  -14.8980 H    3706  WAT3706     0.2052
  11115  H2        -3.4300   19.2000  -14.6720 H    3706  WAT3706     0.2052
  11116  O        -14.4570   20.7770  -16.1280 O.3  3707  WAT3707    -0.4105
  11117  H1       -13.9280   19.9900  -16.2570 H    3707  WAT3707     0.2052
  11118  H2       -13.8250   21.4560  -15.8940 H    3707  WAT3707     0.2052
  11119  O        -12.2640   20.5150  -13.0730 O.3  3708  WAT3708    -0.4105
  11120  H1       -12.8930   19.8130  -12.9060 H    3708  WAT3708     0.2052
  11121  H2       -12.8030   21.2750  -13.2900 H    3708  WAT3708     0.2052
  11122  O        -12.1380   19.7930   -0.6380 O.3  3709  WAT3709    -0.4105
  11123  H1       -12.4200   20.2960   -1.4020 H    3709  WAT3709     0.2052
  11124  H2       -11.7560   18.9950   -1.0040 H    3709  WAT3709     0.2052
  11125  O         -5.5360   19.2080   -0.0600 O.3  3710  WAT3710    -0.4105
  11126  H1        -5.6500   19.5280    0.8350 H    3710  WAT3710     0.2052
  11127  H2        -4.7200   19.6100   -0.3560 H    3710  WAT3710     0.2052
  11128  O         -8.4990   29.0060  -27.8150 O.3  3711  WAT3711    -0.4105
  11129  H1        -9.2750   28.5260  -27.5250 H    3711  WAT3711     0.2052
  11130  H2        -7.8480   28.3260  -27.9900 H    3711  WAT3711     0.2052
  11131  O        -14.4820   29.3180  -26.9380 O.3  3712  WAT3712    -0.4105
  11132  H1       -15.3140   29.0620  -26.5380 H    3712  WAT3712     0.2052
  11133  H2       -13.8740   29.3890  -26.2020 H    3712  WAT3712     0.2052
  11134  O        -18.1100   26.8780  -27.2700 O.3  3713  WAT3713    -0.4105
  11135  H1       -17.5380   26.1110  -27.2690 H    3713  WAT3713     0.2052
  11136  H2       -18.1100   27.1770  -28.1790 H    3713  WAT3713     0.2052
  11137  O        -16.8670   22.2870  -25.4830 O.3  3714  WAT3714    -0.4105
  11138  H1       -17.0470   21.3890  -25.2020 H    3714  WAT3714     0.2052
  11139  H2       -17.2690   22.8340  -24.8080 H    3714  WAT3714     0.2052
  11140  O         -8.0270   24.4880  -27.5810 O.3  3715  WAT3715    -0.4105
  11141  H1        -7.6510   23.6150  -27.6940 H    3715  WAT3715     0.2052
  11142  H2        -8.1250   24.8240  -28.4720 H    3715  WAT3715     0.2052
  11143  O        -16.2490   24.7830  -26.8740 O.3  3716  WAT3716    -0.4105
  11144  H1       -15.5680   25.0470  -26.2560 H    3716  WAT3716     0.2052
  11145  H2       -16.5640   23.9430  -26.5410 H    3716  WAT3716     0.2052
  11146  O        -12.0560   25.8300  -27.7870 O.3  3717  WAT3717    -0.4105
  11147  H1       -11.5480   26.3280  -27.1470 H    3717  WAT3717     0.2052
  11148  H2       -11.5250   25.0530  -27.9630 H    3717  WAT3717     0.2052
  11149  O          0.0450   24.0000  -24.0840 O.3  3718  WAT3718    -0.4105
  11150  H1        -0.6600   24.3880  -24.6030 H    3718  WAT3718     0.2052
  11151  H2         0.3110   24.6950  -23.4820 H    3718  WAT3718     0.2052
  11152  O        -13.7730   20.4690  -23.5210 O.3  3719  WAT3719    -0.4105
  11153  H1       -13.7710   20.9870  -24.3260 H    3719  WAT3719     0.2052
  11154  H2       -14.6020   19.9920  -23.5440 H    3719  WAT3719     0.2052
  11155  O         -4.0090   23.9230  -27.8760 O.3  3720  WAT3720    -0.4105
  11156  H1        -4.7130   24.2120  -27.2960 H    3720  WAT3720     0.2052
  11157  H2        -3.6480   24.7330  -28.2360 H    3720  WAT3720     0.2052
  11158  O        -14.0910   22.1800  -25.5140 O.3  3721  WAT3721    -0.4105
  11159  H1       -13.7490   23.0250  -25.8080 H    3721  WAT3721     0.2052
  11160  H2       -15.0290   22.3290  -25.3970 H    3721  WAT3721     0.2052
  11161  O         -0.9400   23.3690  -27.4850 O.3  3722  WAT3722    -0.4105
  11162  H1        -1.8880   23.4030  -27.3530 H    3722  WAT3722     0.2052
  11163  H2        -0.6150   24.1830  -27.1000 H    3722  WAT3722     0.2052
  11164  O        -10.4080   19.6690  -29.1890 O.3  3723  WAT3723    -0.4105
  11165  H1       -10.1010   19.1130  -29.9060 H    3723  WAT3723     0.2052
  11166  H2       -11.3380   19.8030  -29.3720 H    3723  WAT3723     0.2052
  11167  O         -1.5120   28.6870  -25.4790 O.3  3724  WAT3724    -0.4105
  11168  H1        -2.3400   28.7560  -25.9540 H    3724  WAT3724     0.2052
  11169  H2        -0.9170   29.2720  -25.9470 H    3724  WAT3724     0.2052
  11170  O         -4.5480   25.4740  -24.5330 O.3  3725  WAT3725    -0.4105
  11171  H1        -4.9610   26.2990  -24.2790 H    3725  WAT3725     0.2052
  11172  H2        -5.2800   24.8880  -24.7260 H    3725  WAT3725     0.2052
  11173  O        -13.7020   25.0340  -25.8910 O.3  3726  WAT3726    -0.4105
  11174  H1       -13.1500   25.1440  -26.6660 H    3726  WAT3726     0.2052
  11175  H2       -13.1870   25.4080  -25.1760 H    3726  WAT3726     0.2052
  11176  O        -14.0270   28.5560  -22.2810 O.3  3727  WAT3727    -0.4105
  11177  H1       -14.1670   29.4280  -21.9120 H    3727  WAT3727     0.2052
  11178  H2       -14.9090   28.2130  -22.4260 H    3727  WAT3727     0.2052
  11179  O         -1.0220   24.5260  -20.6510 O.3  3728  WAT3728    -0.4105
  11180  H1        -1.6380   25.0340  -21.1790 H    3728  WAT3728     0.2052
  11181  H2        -1.3420   23.6250  -20.7080 H    3728  WAT3728     0.2052
  11182  O        -13.2480   20.4980  -28.7880 O.3  3729  WAT3729    -0.4105
  11183  H1       -13.6910   21.2790  -29.1200 H    3729  WAT3729     0.2052
  11184  H2       -12.6890   20.8210  -28.0810 H    3729  WAT3729     0.2052
  11185  O         -8.9610   23.3650  -23.1850 O.3  3730  WAT3730    -0.4105
  11186  H1        -9.4230   23.5730  -22.3730 H    3730  WAT3730     0.2052
  11187  H2        -9.3630   22.5510  -23.4880 H    3730  WAT3730     0.2052
  11188  O         -3.9600   24.5860  -22.0550 O.3  3731  WAT3731    -0.4105
  11189  H1        -4.8110   24.2860  -21.7340 H    3731  WAT3731     0.2052
  11190  H2        -4.1200   24.8300  -22.9670 H    3731  WAT3731     0.2052
  11191  O         -6.8650   26.0860  -19.9550 O.3  3732  WAT3732    -0.4105
  11192  H1        -6.5400   25.2520  -20.2950 H    3732  WAT3732     0.2052
  11193  H2        -6.0770   26.6090  -19.8070 H    3732  WAT3732     0.2052
  11194  O        -11.2100   21.0430  -26.9290 O.3  3733  WAT3733    -0.4105
  11195  H1       -10.9130   21.9490  -27.0100 H    3733  WAT3733     0.2052
  11196  H2       -10.6620   20.5550  -27.5430 H    3733  WAT3733     0.2052
  11197  O        -11.0160   26.5200  -20.3940 O.3  3734  WAT3734    -0.4105
  11198  H1       -11.1120   25.5790  -20.5440 H    3734  WAT3734     0.2052
  11199  H2       -10.1730   26.7410  -20.7890 H    3734  WAT3734     0.2052
  11200  O        -15.8850   22.9310  -22.2410 O.3  3735  WAT3735    -0.4105
  11201  H1       -16.2790   23.7790  -22.0330 H    3735  WAT3735     0.2052
  11202  H2       -16.5730   22.2940  -22.0500 H    3735  WAT3735     0.2052
  11203  O         -9.3110   23.0150  -19.1710 O.3  3736  WAT3736    -0.4105
  11204  H1       -10.0010   22.8220  -18.5360 H    3736  WAT3736     0.2052
  11205  H2        -8.5680   23.2980  -18.6390 H    3736  WAT3736     0.2052
  11206  O        -18.5840   20.8540  -28.2080 O.3  3737  WAT3737    -0.4105
  11207  H1       -18.8720   21.4240  -27.4950 H    3737  WAT3737     0.2052
  11208  H2       -17.8390   20.3750  -27.8450 H    3737  WAT3737     0.2052
  11209  O         -7.0340   26.8550  -26.3360 O.3  3738  WAT3738    -0.4105
  11210  H1        -7.7660   27.3630  -25.9870 H    3738  WAT3738     0.2052
  11211  H2        -7.4320   26.0380  -26.6370 H    3738  WAT3738     0.2052
  11212  O        -10.5970   23.5300  -27.9300 O.3  3739  WAT3739    -0.4105
  11213  H1       -10.5930   23.0890  -28.7800 H    3739  WAT3739     0.2052
  11214  H2        -9.7020   23.8520  -27.8230 H    3739  WAT3739     0.2052
  11215  O        -14.7460   23.4130  -28.9710 O.3  3740  WAT3740    -0.4105
  11216  H1       -15.0860   23.8900  -28.2140 H    3740  WAT3740     0.2052
  11217  H2       -15.5090   22.9590  -29.3310 H    3740  WAT3740     0.2052
  11218  O         -6.5720   22.3080  -26.9230 O.3  3741  WAT3741    -0.4105
  11219  H1        -6.5550   22.7590  -26.0790 H    3741  WAT3741     0.2052
  11220  H2        -6.8200   21.4090  -26.7100 H    3741  WAT3741     0.2052
  11221  O         -3.1450   19.7210  -21.0850 O.3  3742  WAT3742    -0.4105
  11222  H1        -2.8200   18.9900  -20.5590 H    3742  WAT3742     0.2052
  11223  H2        -3.1090   19.4030  -21.9870 H    3742  WAT3742     0.2052
  11224  O        -10.2960   27.5900  -26.1840 O.3  3743  WAT3743    -0.4105
  11225  H1        -9.9290   27.1160  -25.4380 H    3743  WAT3743     0.2052
  11226  H2       -10.4850   28.4640  -25.8430 H    3743  WAT3743     0.2052
  11227  O        -12.5060   26.6310  -23.8650 O.3  3744  WAT3744    -0.4105
  11228  H1       -12.8100   27.5100  -23.6400 H    3744  WAT3744     0.2052
  11229  H2       -11.5510   26.6910  -23.8300 H    3744  WAT3744     0.2052
  11230  O        -16.4500   27.4710  -22.7180 O.3  3745  WAT3745    -0.4105
  11231  H1       -16.8080   28.1370  -22.1310 H    3745  WAT3745     0.2052
  11232  H2       -16.7440   26.6400  -22.3470 H    3745  WAT3745     0.2052
  11233  O        -13.2480   27.9300  -19.8340 O.3  3746  WAT3746    -0.4105
  11234  H1       -13.5480   28.0750  -20.7320 H    3746  WAT3746     0.2052
  11235  H2       -12.4770   27.3700  -19.9270 H    3746  WAT3746     0.2052
  11236  O        -17.8750   20.9610  -22.0410 O.3  3747  WAT3747    -0.4105
  11237  H1       -18.5890   21.1600  -21.4360 H    3747  WAT3747     0.2052
  11238  H2       -17.4550   20.1850  -21.6700 H    3747  WAT3747     0.2052
  11239  O         -6.3810   23.4530  -24.2910 O.3  3748  WAT3748    -0.4105
  11240  H1        -6.0130   22.6320  -23.9630 H    3748  WAT3748     0.2052
  11241  H2        -7.2410   23.5130  -23.8750 H    3748  WAT3748     0.2052
  11242  O         -9.4210   26.1070  -24.0670 O.3  3749  WAT3749    -0.4105
  11243  H1        -8.9220   26.5810  -23.4020 H    3749  WAT3749     0.2052
  11244  H2        -9.2780   25.1830  -23.8600 H    3749  WAT3749     0.2052
  11245  O         -2.2140   22.3240  -23.2240 O.3  3750  WAT3750    -0.4105
  11246  H1        -2.7170   23.0640  -22.8850 H    3750  WAT3750     0.2052
  11247  H2        -1.3980   22.7120  -23.5410 H    3750  WAT3750     0.2052
  11248  O         -3.9220   27.5670  -29.7780 O.3  3751  WAT3751    -0.4105
  11249  H1        -4.8630   27.5820  -29.6030 H    3751  WAT3751     0.2052
  11250  H2        -3.6070   26.7810  -29.3320 H    3751  WAT3751     0.2052
  11251  O        -17.7220   28.5030  -20.2990 O.3  3752  WAT3752    -0.4105
  11252  H1       -17.2180   27.9240  -19.7270 H    3752  WAT3752     0.2052
  11253  H2       -18.4610   28.7870  -19.7610 H    3752  WAT3752     0.2052
  11254  O        -15.6900   26.6460  -19.4040 O.3  3753  WAT3753    -0.4105
  11255  H1       -15.6490   26.3470  -18.4950 H    3753  WAT3753     0.2052
  11256  H2       -14.8350   27.0470  -19.5630 H    3753  WAT3753     0.2052
  11257  O        -13.7490   25.2250  -21.4360 O.3  3754  WAT3754    -0.4105
  11258  H1       -14.2790   24.7340  -22.0640 H    3754  WAT3754     0.2052
  11259  H2       -13.0800   25.6530  -21.9710 H    3754  WAT3754     0.2052
  11260  O         -4.8510   29.6920  -21.6720 O.3  3755  WAT3755    -0.4105
  11261  H1        -4.4370   29.8470  -20.8230 H    3755  WAT3755     0.2052
  11262  H2        -5.7860   29.8180  -21.5100 H    3755  WAT3755     0.2052
  11263  O         -4.3790   27.0320  -19.6680 O.3  3756  WAT3756    -0.4105
  11264  H1        -3.7970   26.2770  -19.7560 H    3756  WAT3756     0.2052
  11265  H2        -4.2030   27.5620  -20.4450 H    3756  WAT3756     0.2052
  11266  O        -13.2620   22.1910  -21.3570 O.3  3757  WAT3757    -0.4105
  11267  H1       -13.3560   21.5730  -22.0820 H    3757  WAT3757     0.2052
  11268  H2       -13.8420   22.9180  -21.5840 H    3757  WAT3757     0.2052
  11269  O        -10.4960   20.7490  -24.3240 O.3  3758  WAT3758    -0.4105
  11270  H1       -10.9440   20.7710  -25.1690 H    3758  WAT3758     0.2052
  11271  H2       -11.1290   20.3510  -23.7270 H    3758  WAT3758     0.2052
  11272  O         -7.7530   27.3760  -22.3190 O.3  3759  WAT3759    -0.4105
  11273  H1        -7.6340   26.7800  -21.5790 H    3759  WAT3759     0.2052
  11274  H2        -6.8940   27.4130  -22.7390 H    3759  WAT3759     0.2052
  11275  O         -5.4140   27.9290  -23.7430 O.3  3760  WAT3760    -0.4105
  11276  H1        -5.9410   28.4540  -24.3460 H    3760  WAT3760     0.2052
  11277  H2        -5.0710   28.5620  -23.1120 H    3760  WAT3760     0.2052
  11278  O        -10.9860   23.9180  -21.0610 O.3  3761  WAT3761    -0.4105
  11279  H1       -10.3960   23.6090  -20.3740 H    3761  WAT3761     0.2052
  11280  H2       -11.8040   23.4460  -20.9050 H    3761  WAT3761     0.2052
  11281  O         -6.1670   23.5340  -20.8280 O.3  3762  WAT3762    -0.4105
  11282  H1        -6.8560   22.8730  -20.8930 H    3762  WAT3762     0.2052
  11283  H2        -5.4460   23.0880  -20.3830 H    3762  WAT3762     0.2052
  11284  O        -16.6210   28.2760  -25.3880 O.3  3763  WAT3763    -0.4105
  11285  H1       -16.2540   28.1890  -24.5080 H    3763  WAT3763     0.2052
  11286  H2       -17.1900   27.5130  -25.4870 H    3763  WAT3763     0.2052
  11287  O         -1.8210   26.7450  -22.3750 O.3  3764  WAT3764    -0.4105
  11288  H1        -2.0520   26.5160  -23.2750 H    3764  WAT3764     0.2052
  11289  H2        -1.5600   27.6650  -22.4200 H    3764  WAT3764     0.2052
  11290  O        -17.0690   25.1870  -21.4820 O.3  3765  WAT3765    -0.4105
  11291  H1       -17.9640   25.1540  -21.1420 H    3765  WAT3765     0.2052
  11292  H2       -16.5300   25.3860  -20.7170 H    3765  WAT3765     0.2052
  11293  O         -3.3820   21.9700  -19.5970 O.3  3766  WAT3766    -0.4105
  11294  H1        -2.5050   21.9790  -19.2130 H    3766  WAT3766     0.2052
  11295  H2        -3.3700   21.2330  -20.2070 H    3766  WAT3766     0.2052
  11296  O         -1.9350   25.8230  -28.7080 O.3  3767  WAT3767    -0.4105
  11297  H1        -1.4120   25.3300  -29.3390 H    3767  WAT3767     0.2052
  11298  H2        -1.3490   25.9580  -27.9630 H    3767  WAT3767     0.2052
  11299  O         -1.7560   25.9070  -25.1860 O.3  3768  WAT3768    -0.4105
  11300  H1        -2.7060   25.8740  -25.0710 H    3768  WAT3768     0.2052
  11301  H2        -1.5750   26.8170  -25.4210 H    3768  WAT3768     0.2052
  11302  O        -16.5650   19.4620  -27.1330 O.3  3769  WAT3769    -0.4105
  11303  H1       -15.9180   18.9120  -27.5740 H    3769  WAT3769     0.2052
  11304  H2       -16.1450   19.7160  -26.3120 H    3769  WAT3769     0.2052
  11305  O         -2.6700   19.6560  -23.7760 O.3  3770  WAT3770    -0.4105
  11306  H1        -2.0330   20.2700  -23.4110 H    3770  WAT3770     0.2052
  11307  H2        -2.5230   19.6920  -24.7220 H    3770  WAT3770     0.2052
  11308  O        -16.8120   19.6180  -24.3910 O.3  3771  WAT3771    -0.4105
  11309  H1       -17.1610   20.0740  -23.6250 H    3771  WAT3771     0.2052
  11310  H2       -17.1430   18.7230  -24.3090 H    3771  WAT3771     0.2052
  11311  O         -9.3000   20.8090  -20.8690 O.3  3772  WAT3772    -0.4105
  11312  H1        -9.3610   21.4010  -20.1190 H    3772  WAT3772     0.2052
  11313  H2        -8.3600   20.7010  -21.0140 H    3772  WAT3772     0.2052
  11314  O         -6.6620   20.4660  -21.2300 O.3  3773  WAT3773    -0.4105
  11315  H1        -6.0480   20.7840  -21.8920 H    3773  WAT3773     0.2052
  11316  H2        -6.1170   19.9810  -20.6100 H    3773  WAT3773     0.2052
  11317  O        -16.1400   19.1450  -21.1160 O.3  3774  WAT3774    -0.4105
  11318  H1       -15.5920   18.9640  -21.8790 H    3774  WAT3774     0.2052
  11319  H2       -16.0750   18.3550  -20.5800 H    3774  WAT3774     0.2052
  11320  O         -5.9210   19.0290  -24.9030 O.3  3775  WAT3775    -0.4105
  11321  H1        -6.7950   19.3630  -25.1050 H    3775  WAT3775     0.2052
  11322  H2        -6.0300   18.5560  -24.0780 H    3775  WAT3775     0.2052
  11323  O         -5.0140   21.2360  -23.5190 O.3  3776  WAT3776    -0.4105
  11324  H1        -5.3430   20.4210  -23.8980 H    3776  WAT3776     0.2052
  11325  H2        -4.0660   21.1930  -23.6420 H    3776  WAT3776     0.2052
  11326  O         -8.1740   19.9460  -25.9630 O.3  3777  WAT3777    -0.4105
  11327  H1        -8.9570   20.4210  -25.6840 H    3777  WAT3777     0.2052
  11328  H2        -8.4680   19.0410  -26.0720 H    3777  WAT3777     0.2052
  11329  O         -3.6220   20.6480  -27.9190 O.3  3778  WAT3778    -0.4105
  11330  H1        -3.1810   20.5930  -28.7660 H    3778  WAT3778     0.2052
  11331  H2        -3.8910   21.5640  -27.8480 H    3778  WAT3778     0.2052
  11332  O         -5.7860   19.0290  -29.2140 O.3  3779  WAT3779    -0.4105
  11333  H1        -5.1830   19.6010  -28.7390 H    3779  WAT3779     0.2052
  11334  H2        -6.5270   19.5930  -29.4360 H    3779  WAT3779     0.2052
  11335  O        -12.1380   19.7930  -19.4120 O.3  3780  WAT3780    -0.4105
  11336  H1       -12.4200   20.2960  -20.1760 H    3780  WAT3780     0.2052
  11337  H2       -11.7560   18.9950  -19.7780 H    3780  WAT3780     0.2052
  11338  O         -5.5360   19.2080  -18.8340 O.3  3781  WAT3781    -0.4105
  11339  H1        -5.6500   19.5280  -17.9390 H    3781  WAT3781     0.2052
  11340  H2        -4.7200   19.6100  -19.1300 H    3781  WAT3781     0.2052
  11341  O         -6.6310    8.4530   26.6270 O.3  3782  WAT3782    -0.4105
  11342  H1        -6.7110    7.5390   26.3560 H    3782  WAT3782     0.2052
  11343  H2        -7.0440    8.9500   25.9210 H    3782  WAT3782     0.2052
  11344  O         -8.4990   10.2310   28.5080 O.3  3783  WAT3783    -0.4105
  11345  H1        -9.2750    9.7510   28.7980 H    3783  WAT3783     0.2052
  11346  H2        -7.8480    9.5520   28.3330 H    3783  WAT3783     0.2052
  11347  O         -4.4780   14.6370   27.2880 O.3  3784  WAT3784    -0.4105
  11348  H1        -4.9400   13.8660   27.6160 H    3784  WAT3784     0.2052
  11349  H2        -3.6660   14.6640   27.7930 H    3784  WAT3784     0.2052
  11350  O        -14.5020   14.5770   29.5810 O.3  3785  WAT3785    -0.4105
  11351  H1       -14.1990   13.6870   29.4020 H    3785  WAT3785     0.2052
  11352  H2       -13.7580   15.1340   29.3530 H    3785  WAT3785     0.2052
  11353  O        -16.0730    5.5030   23.1700 O.3  3786  WAT3786    -0.4105
  11354  H1       -16.9610    5.8450   23.0680 H    3786  WAT3786     0.2052
  11355  H2       -15.7890    5.3030   22.2780 H    3786  WAT3786     0.2052
  11356  O        -18.1100    8.1040   29.0540 O.3  3787  WAT3787    -0.4105
  11357  H1       -17.5380    7.3360   29.0540 H    3787  WAT3787     0.2052
  11358  H2       -18.1100    8.4030   28.1440 H    3787  WAT3787     0.2052
  11359  O         -8.2520   16.9230   26.9080 O.3  3788  WAT3788    -0.4105
  11360  H1        -8.8710   17.3790   26.3370 H    3788  WAT3788     0.2052
  11361  H2        -7.3970   17.0780   26.5070 H    3788  WAT3788     0.2052
  11362  O         -9.0580   12.9070   28.5150 O.3  3789  WAT3789    -0.4105
  11363  H1        -9.1270   11.9660   28.3540 H    3789  WAT3789     0.2052
  11364  H2        -8.2960   12.9970   29.0870 H    3789  WAT3789     0.2052
  11365  O         -8.0270    5.7140   28.7420 O.3  3790  WAT3790    -0.4105
  11366  H1        -7.6510    4.8410   28.6290 H    3790  WAT3790     0.2052
  11367  H2        -8.1250    6.0500   27.8510 H    3790  WAT3790     0.2052
  11368  O        -13.8970    4.0870   24.2030 O.3  3791  WAT3791    -0.4105
  11369  H1       -13.7900    4.9870   24.5100 H    3791  WAT3791     0.2052
  11370  H2       -14.8080    4.0380   23.9130 H    3791  WAT3791     0.2052
  11371  O         -4.2450    3.2090   25.6740 O.3  3792  WAT3792    -0.4105
  11372  H1        -3.4240    2.7190   25.7170 H    3792  WAT3792     0.2052
  11373  H2        -4.2120    3.7990   26.4280 H    3792  WAT3792     0.2052
  11374  O        -16.2490    6.0080   29.4490 O.3  3793  WAT3793    -0.4105
  11375  H1       -15.5680    6.2720   30.0670 H    3793  WAT3793     0.2052
  11376  H2       -16.5640    5.1690   29.7820 H    3793  WAT3793     0.2052
  11377  O        -12.0560    7.0550   28.5360 O.3  3794  WAT3794    -0.4105
  11378  H1       -11.5480    7.5530   29.1760 H    3794  WAT3794     0.2052
  11379  H2       -11.5250    6.2790   28.3600 H    3794  WAT3794     0.2052
  11380  O         -7.3850   11.8070   24.3010 O.3  3795  WAT3795    -0.4105
  11381  H1        -8.0040   12.2720   23.7380 H    3795  WAT3795     0.2052
  11382  H2        -6.8730   12.5000   24.7180 H    3795  WAT3795     0.2052
  11383  O         -4.0090    5.1490   28.4470 O.3  3796  WAT3796    -0.4105
  11384  H1        -4.7130    5.4380   29.0280 H    3796  WAT3796     0.2052
  11385  H2        -3.6480    5.9590   28.0870 H    3796  WAT3796     0.2052
  11386  O        -18.0170   12.4930   21.6750 O.3  3797  WAT3797    -0.4105
  11387  H1       -18.3940   12.9810   20.9440 H    3797  WAT3797     0.2052
  11388  H2       -17.7600   13.1650   22.3060 H    3797  WAT3797     0.2052
  11389  O         -0.9400    4.5950   28.8380 O.3  3798  WAT3798    -0.4105
  11390  H1        -1.8880    4.6280   28.9700 H    3798  WAT3798     0.2052
  11391  H2        -0.6150    5.4080   29.2230 H    3798  WAT3798     0.2052
  11392  O        -10.4080    0.8940   27.1340 O.3  3799  WAT3799    -0.4105
  11393  H1       -10.1010    0.3390   26.4170 H    3799  WAT3799     0.2052
  11394  H2       -11.3380    1.0290   26.9510 H    3799  WAT3799     0.2052
  11395  O         -4.8570   16.6110   29.4240 O.3  3800  WAT3800    -0.4105
  11396  H1        -4.8440   16.2070   28.5570 H    3800  WAT3800     0.2052
  11397  H2        -5.4090   17.3860   29.3210 H    3800  WAT3800     0.2052
  11398  O         -3.5620   13.3330   24.5140 O.3  3801  WAT3801    -0.4105
  11399  H1        -3.6730   12.3900   24.6380 H    3801  WAT3801     0.2052
  11400  H2        -3.5650   13.6940   25.4000 H    3801  WAT3801     0.2052
  11401  O         -8.0200    8.9590   23.8700 O.3  3802  WAT3802    -0.4105
  11402  H1        -8.9470    8.8930   24.0990 H    3802  WAT3802     0.2052
  11403  H2        -7.8680    9.8970   23.7550 H    3802  WAT3802     0.2052
  11404  O         -8.0330    5.2310   20.8660 O.3  3803  WAT3803    -0.4105
  11405  H1        -8.9730    5.3920   20.9520 H    3803  WAT3803     0.2052
  11406  H2        -7.7150    5.9490   20.3200 H    3803  WAT3803     0.2052
  11407  O         -3.9900   10.5210   24.3730 O.3  3804  WAT3804    -0.4105
  11408  H1        -4.6090   10.1830   23.7260 H    3804  WAT3804     0.2052
  11409  H2        -4.0080    9.8770   25.0810 H    3804  WAT3804     0.2052
  11410  O        -12.4140    9.4860   26.6520 O.3  3805  WAT3805    -0.4105
  11411  H1       -12.8190    8.7730   26.1560 H    3805  WAT3805     0.2052
  11412  H2       -12.3280    9.1410   27.5410 H    3805  WAT3805     0.2052
  11413  O        -11.9460   13.1720   28.8160 O.3  3806  WAT3806    -0.4105
  11414  H1       -12.2430   12.5670   28.1360 H    3806  WAT3806     0.2052
  11415  H2       -10.9960   13.2100   28.7050 H    3806  WAT3806     0.2052
  11416  O         -5.8140    9.7600   21.3810 O.3  3807  WAT3807    -0.4105
  11417  H1        -5.3750    8.9220   21.2340 H    3807  WAT3807     0.2052
  11418  H2        -5.1010   10.3930   21.4670 H    3807  WAT3807     0.2052
  11419  O         -7.7040   14.6990   25.3490 O.3  3808  WAT3808    -0.4105
  11420  H1        -7.2650   15.4420   24.9340 H    3808  WAT3808     0.2052
  11421  H2        -7.7660   14.9420   26.2730 H    3808  WAT3808     0.2052
  11422  O         -2.2320    1.0140   19.6950 O.3  3809  WAT3809    -0.4105
  11423  H1        -2.5450    1.1070   20.5950 H    3809  WAT3809     0.2052
  11424  H2        -1.4710    1.5920   19.6440 H    3809  WAT3809     0.2052
  11425  O        -15.7140    8.3800   24.1520 O.3  3810  WAT3810    -0.4105
  11426  H1       -15.8340    9.1060   23.5410 H    3810  WAT3810     0.2052
  11427  H2       -16.0240    7.6100   23.6750 H    3810  WAT3810     0.2052
  11428  O        -16.8310   13.2520   26.3700 O.3  3811  WAT3811    -0.4105
  11429  H1       -17.2380   13.3930   25.5150 H    3811  WAT3811     0.2052
  11430  H2       -15.9390   12.9680   26.1670 H    3811  WAT3811     0.2052
  11431  O         -5.0370   17.6860   22.7050 O.3  3812  WAT3812    -0.4105
  11432  H1        -5.1970   17.3970   23.6030 H    3812  WAT3812     0.2052
  11433  H2        -5.2030   16.9100   22.1700 H    3812  WAT3812     0.2052
  11434  O        -12.5590   17.4660   24.4820 O.3  3813  WAT3813    -0.4105
  11435  H1       -12.7340   16.5500   24.2690 H    3813  WAT3813     0.2052
  11436  H2       -13.4130   17.8250   24.7220 H    3813  WAT3813     0.2052
  11437  O         -5.3350   15.1950   21.2650 O.3  3814  WAT3814    -0.4105
  11438  H1        -6.0280   15.1930   20.6050 H    3814  WAT3814     0.2052
  11439  H2        -4.5930   14.7710   20.8340 H    3814  WAT3814     0.2052
  11440  O         -5.7700   16.8210   25.3400 O.3  3815  WAT3815    -0.4105
  11441  H1        -5.3140   16.0400   25.6530 H    3815  WAT3815     0.2052
  11442  H2        -5.4310   17.5320   25.8840 H    3815  WAT3815     0.2052
  11443  O        -13.2480    1.7240   27.5350 O.3  3816  WAT3816    -0.4105
  11444  H1       -13.6910    2.5050   27.2030 H    3816  WAT3816     0.2052
  11445  H2       -12.6890    2.0470   28.2420 H    3816  WAT3816     0.2052
  11446  O        -10.1320    1.3450   22.4150 O.3  3817  WAT3817    -0.4105
  11447  H1       -10.7560    1.3410   23.1410 H    3817  WAT3817     0.2052
  11448  H2       -10.2190    0.4780   22.0190 H    3817  WAT3817     0.2052
  11449  O        -11.2100    2.2680   29.3940 O.3  3818  WAT3818    -0.4105
  11450  H1       -10.9130    3.1750   29.3130 H    3818  WAT3818     0.2052
  11451  H2       -10.6620    1.7800   28.7800 H    3818  WAT3818     0.2052
  11452  O        -13.4560    6.8470   25.2630 O.3  3819  WAT3819    -0.4105
  11453  H1       -13.6820    6.6310   26.1680 H    3819  WAT3819     0.2052
  11454  H2       -14.2370    7.2800   24.9170 H    3819  WAT3819     0.2052
  11455  O         -6.2260    6.8530   23.8620 O.3  3820  WAT3820    -0.4105
  11456  H1        -6.8260    7.5770   23.6780 H    3820  WAT3820     0.2052
  11457  H2        -5.6790    6.7910   23.0800 H    3820  WAT3820     0.2052
  11458  O         -7.6200    5.4900   25.8920 O.3  3821  WAT3821    -0.4105
  11459  H1        -7.2270    5.8070   25.0790 H    3821  WAT3821     0.2052
  11460  H2        -7.2580    4.6110   26.0070 H    3821  WAT3821     0.2052
  11461  O        -18.5840    2.0800   28.1150 O.3  3822  WAT3822    -0.4105
  11462  H1       -18.8720    2.6500   28.8280 H    3822  WAT3822     0.2052
  11463  H2       -17.8390    1.6000   28.4780 H    3822  WAT3822     0.2052
  11464  O        -18.3970    6.0220   19.3260 O.3  3823  WAT3823    -0.4105
  11465  H1       -18.4790    6.9650   19.4670 H    3823  WAT3823     0.2052
  11466  H2       -18.7480    5.8790   18.4470 H    3823  WAT3823     0.2052
  11467  O        -10.5970    4.7560   28.3930 O.3  3824  WAT3824    -0.4105
  11468  H1       -10.5930    4.3150   27.5430 H    3824  WAT3824     0.2052
  11469  H2        -9.7020    5.0770   28.5000 H    3824  WAT3824     0.2052
  11470  O        -14.7460    4.6380   27.3520 O.3  3825  WAT3825    -0.4105
  11471  H1       -15.0860    5.1160   28.1090 H    3825  WAT3825     0.2052
  11472  H2       -15.5090    4.1850   26.9920 H    3825  WAT3825     0.2052
  11473  O        -10.5350    5.7570   21.3830 O.3  3826  WAT3826    -0.4105
  11474  H1       -10.4130    5.7160   22.3320 H    3826  WAT3826     0.2052
  11475  H2       -10.9200    6.6190   21.2280 H    3826  WAT3826     0.2052
  11476  O        -11.5230    8.0670   20.7820 O.3  3827  WAT3827    -0.4105
  11477  H1       -12.0910    7.6190   20.1550 H    3827  WAT3827     0.2052
  11478  H2       -10.8140    8.4260   20.2480 H    3827  WAT3827     0.2052
  11479  O        -17.4320    3.5600   26.2680 O.3  3828  WAT3828    -0.4105
  11480  H1       -17.7170    3.1960   27.1060 H    3828  WAT3828     0.2052
  11481  H2       -17.4940    2.8280   25.6550 H    3828  WAT3828     0.2052
  11482  O        -13.9780   12.0630   23.0540 O.3  3829  WAT3829    -0.4105
  11483  H1       -14.7520   11.5230   22.8940 H    3829  WAT3829     0.2052
  11484  H2       -13.2480   11.5430   22.7160 H    3829  WAT3829     0.2052
  11485  O         -3.2190   11.0590   28.8470 O.3  3830  WAT3830    -0.4105
  11486  H1        -2.4990   11.5550   28.4570 H    3830  WAT3830     0.2052
  11487  H2        -3.4210   10.3810   28.2020 H    3830  WAT3830     0.2052
  11488  O         -7.7580    2.4530   22.9900 O.3  3831  WAT3831    -0.4105
  11489  H1        -8.5720    1.9540   22.9140 H    3831  WAT3831     0.2052
  11490  H2        -7.9520    3.2930   22.5730 H    3831  WAT3831     0.2052
  11491  O         -5.0430    6.8250   21.2860 O.3  3832  WAT3832    -0.4105
  11492  H1        -4.1550    7.1370   21.1110 H    3832  WAT3832     0.2052
  11493  H2        -5.0730    5.9520   20.8940 H    3832  WAT3832     0.2052
  11494  O        -13.9340   11.7310   26.6920 O.3  3833  WAT3833    -0.4105
  11495  H1       -13.4160   10.9280   26.6380 H    3833  WAT3833     0.2052
  11496  H2       -14.3860   11.6690   27.5340 H    3833  WAT3833     0.2052
  11497  O         -9.0470   12.9970   21.9650 O.3  3834  WAT3834    -0.4105
  11498  H1        -8.7060   13.7420   21.4690 H    3834  WAT3834     0.2052
  11499  H2        -9.8760   13.3110   22.3270 H    3834  WAT3834     0.2052
  11500  O         -2.7720    8.1360   20.7540 O.3  3835  WAT3835    -0.4105
  11501  H1        -2.8550    8.5680   19.9040 H    3835  WAT3835     0.2052
  11502  H2        -2.0520    8.5960   21.1870 H    3835  WAT3835     0.2052
  11503  O         -1.7430   14.9900   23.4820 O.3  3836  WAT3836    -0.4105
  11504  H1        -2.3850   14.3360   23.7570 H    3836  WAT3836     0.2052
  11505  H2        -2.1300   15.3960   22.7060 H    3836  WAT3836     0.2052
  11506  O         -6.1640   12.3190   27.3290 O.3  3837  WAT3837    -0.4105
  11507  H1        -5.8120   11.7220   26.6700 H    3837  WAT3837     0.2052
  11508  H2        -7.0480   11.9930   27.5000 H    3837  WAT3837     0.2052
  11509  O        -10.0780   13.0790   24.7360 O.3  3838  WAT3838    -0.4105
  11510  H1        -9.3910   13.6260   25.1170 H    3838  WAT3838     0.2052
  11511  H2       -10.8650   13.6230   24.7710 H    3838  WAT3838     0.2052
  11512  O        -17.9390    8.6960   20.2280 O.3  3839  WAT3839    -0.4105
  11513  H1       -17.0690    8.9790   20.5120 H    3839  WAT3839     0.2052
  11514  H2       -18.4300    9.5100   20.1130 H    3839  WAT3839     0.2052
  11515  O        -10.7750   10.0830   24.3490 O.3  3840  WAT3840    -0.4105
  11516  H1       -10.3190   10.8940   24.5750 H    3840  WAT3840     0.2052
  11517  H2       -11.1270    9.7660   25.1810 H    3840  WAT3840     0.2052
  11518  O        -14.8740    0.4270   24.8210 O.3  3841  WAT3841    -0.4105
  11519  H1       -15.0030    0.4190   25.7700 H    3841  WAT3841     0.2052
  11520  H2       -15.6980    0.7650   24.4700 H    3841  WAT3841     0.2052
  11521  O         -3.3530   13.8820   20.0200 O.3  3842  WAT3842    -0.4105
  11522  H1        -3.5800   13.1650   20.6120 H    3842  WAT3842     0.2052
  11523  H2        -3.7440   13.6330   19.1820 H    3842  WAT3842     0.2052
  11524  O        -17.5720   17.9090   20.7940 O.3  3843  WAT3843    -0.4105
  11525  H1       -17.2120   18.5080   20.1400 H    3843  WAT3843     0.2052
  11526  H2       -17.7120   18.4550   21.5680 H    3843  WAT3843     0.2052
  11527  O         -3.7720   11.7990   21.6810 O.3  3844  WAT3844    -0.4105
  11528  H1        -4.0600   12.2610   22.4690 H    3844  WAT3844     0.2052
  11529  H2        -2.9760   11.3390   21.9500 H    3844  WAT3844     0.2052
  11530  O        -11.5550   15.2920   21.6120 O.3  3845  WAT3845    -0.4105
  11531  H1       -11.5640   16.0250   20.9960 H    3845  WAT3845     0.2052
  11532  H2       -12.4750   15.0450   21.7040 H    3845  WAT3845     0.2052
  11533  O        -15.9540   10.5130   22.3560 O.3  3846  WAT3846    -0.4105
  11534  H1       -16.5610   11.2530   22.3660 H    3846  WAT3846     0.2052
  11535  H2       -15.4790   10.6030   21.5300 H    3846  WAT3846     0.2052
  11536  O         -3.0150    3.6340   22.8410 O.3  3847  WAT3847    -0.4105
  11537  H1        -3.6430    3.7390   22.1270 H    3847  WAT3847     0.2052
  11538  H2        -3.5090    3.8540   23.6300 H    3847  WAT3847     0.2052
  11539  O         -8.5690   15.3550   20.2740 O.3  3848  WAT3848    -0.4105
  11540  H1        -8.4680   15.1510   19.3440 H    3848  WAT3848     0.2052
  11541  H2        -9.4690   15.1010   20.4790 H    3848  WAT3848     0.2052
  11542  O        -11.0460    5.9130   24.2570 O.3  3849  WAT3849    -0.4105
  11543  H1       -11.7550    6.3810   24.6980 H    3849  WAT3849     0.2052
  11544  H2       -10.7620    5.2550   24.8910 H    3849  WAT3849     0.2052
  11545  O         -7.0150    2.6380   25.6960 O.3  3850  WAT3850    -0.4105
  11546  H1        -7.1380    2.6560   24.7470 H    3850  WAT3850     0.2052
  11547  H2        -6.0660    2.6860   25.8160 H    3850  WAT3850     0.2052
  11548  O         -9.9270   17.8730   24.9690 O.3  3851  WAT3851    -0.4105
  11549  H1        -9.6730   17.8360   24.0470 H    3851  WAT3851     0.2052
  11550  H2       -10.8760   17.7470   24.9620 H    3851  WAT3851     0.2052
  11551  O        -12.8430    4.2210   21.6320 O.3  3852  WAT3852    -0.4105
  11552  H1       -11.9940    4.6580   21.5660 H    3852  WAT3852     0.2052
  11553  H2       -13.2100    4.5330   22.4590 H    3852  WAT3852     0.2052
  11554  O         -3.9220    8.7930   26.5450 O.3  3853  WAT3853    -0.4105
  11555  H1        -4.8630    8.8080   26.7200 H    3853  WAT3853     0.2052
  11556  H2        -3.6070    8.0060   26.9910 H    3853  WAT3853     0.2052
  11557  O        -13.9440   10.4750   20.1050 O.3  3854  WAT3854    -0.4105
  11558  H1       -13.1770   10.3630   20.6680 H    3854  WAT3854     0.2052
  11559  H2       -13.8660    9.7780   19.4530 H    3854  WAT3854     0.2052
  11560  O        -15.2490    7.9070   20.7890 O.3  3855  WAT3855    -0.4105
  11561  H1       -15.1690    6.9600   20.9000 H    3855  WAT3855     0.2052
  11562  H2       -14.3570    8.2380   20.8950 H    3855  WAT3855     0.2052
  11563  O         -1.9190   15.9630   28.2200 O.3  3856  WAT3856    -0.4105
  11564  H1        -1.7950   16.7870   28.6930 H    3856  WAT3856     0.2052
  11565  H2        -1.0530   15.7530   27.8730 H    3856  WAT3856     0.2052
  11566  O        -14.4470   18.0570   27.8920 O.3  3857  WAT3857    -0.4105
  11567  H1       -13.7110   17.5080   28.1630 H    3857  WAT3857     0.2052
  11568  H2       -14.0630   18.9220   27.7530 H    3857  WAT3857     0.2052
  11569  O        -17.5630   14.1240   23.7660 O.3  3858  WAT3858    -0.4105
  11570  H1       -18.4890   14.3660   23.7570 H    3858  WAT3858     0.2052
  11571  H2       -17.0970   14.9510   23.6450 H    3858  WAT3858     0.2052
  11572  O        -11.3370   17.2300   19.7150 O.3  3859  WAT3859    -0.4105
  11573  H1       -10.5440   17.5190   19.2630 H    3859  WAT3859     0.2052
  11574  H2       -11.8570   16.7990   19.0360 H    3859  WAT3859     0.2052
  11575  O         -2.2840   16.4570   21.1380 O.3  3860  WAT3860    -0.4105
  11576  H1        -2.5700   16.0430   20.3240 H    3860  WAT3860     0.2052
  11577  H2        -2.4820   17.3850   21.0180 H    3860  WAT3860     0.2052
  11578  O        -10.8200   12.4500   19.5790 O.3  3861  WAT3861    -0.4105
  11579  H1       -10.9240   11.8350   20.3050 H    3861  WAT3861     0.2052
  11580  H2       -10.9870   11.9270   18.7950 H    3861  WAT3861     0.2052
  11581  O         -7.5790   11.5120   20.1830 O.3  3862  WAT3862    -0.4105
  11582  H1        -8.1280   11.9590   20.8270 H    3862  WAT3862     0.2052
  11583  H2        -6.9570   11.0070   20.7070 H    3862  WAT3862     0.2052
  11584  O        -11.9120   10.4710   22.0790 O.3  3863  WAT3863    -0.4105
  11585  H1       -11.4900   10.3050   22.9230 H    3863  WAT3863     0.2052
  11586  H2       -11.7870    9.6610   21.5850 H    3863  WAT3863     0.2052
  11587  O         -9.3990    9.4950   19.3270 O.3  3864  WAT3864    -0.4105
  11588  H1        -8.8780    8.7800   18.9610 H    3864  WAT3864     0.2052
  11589  H2        -8.7520   10.1330   19.6270 H    3864  WAT3864     0.2052
  11590  O        -13.0160    6.5440   19.0250 O.3  3865  WAT3865    -0.4105
  11591  H1       -13.2170    5.6810   19.3870 H    3865  WAT3865     0.2052
  11592  H2       -13.1870    6.4580   18.0870 H    3865  WAT3865     0.2052
  11593  O         -5.5370    1.3550   21.5540 O.3  3866  WAT3866    -0.4105
  11594  H1        -5.2570    0.5120   21.9100 H    3866  WAT3866     0.2052
  11595  H2        -6.3100    1.5880   22.0680 H    3866  WAT3866     0.2052
  11596  O        -14.2180    3.6440   19.0130 O.3  3867  WAT3867    -0.4105
  11597  H1       -13.9150    3.6510   18.1050 H    3867  WAT3867     0.2052
  11598  H2       -13.4780    3.2940   19.5100 H    3867  WAT3867     0.2052
  11599  O        -10.9990    2.5880   19.9990 O.3  3868  WAT3868    -0.4105
  11600  H1       -11.3470    1.9100   19.4190 H    3868  WAT3868     0.2052
  11601  H2       -10.7980    2.1270   20.8130 H    3868  WAT3868     0.2052
  11602  O         -8.8340   17.5760   21.6170 O.3  3869  WAT3869    -0.4105
  11603  H1        -7.9390   17.9140   21.6390 H    3869  WAT3869     0.2052
  11604  H2        -8.8020   16.8540   20.9900 H    3869  WAT3869     0.2052
  11605  O        -15.1950   12.9490   19.8460 O.3  3870  WAT3870    -0.4105
  11606  H1       -14.7570   13.4920   20.5020 H    3870  WAT3870     0.2052
  11607  H2       -14.7100   12.1230   19.8560 H    3870  WAT3870     0.2052
  11608  O        -17.9800   15.7380   27.2980 O.3  3871  WAT3871    -0.4105
  11609  H1       -17.6500   14.8700   27.0660 H    3871  WAT3871     0.2052
  11610  H2       -17.5510   15.9430   28.1290 H    3871  WAT3871     0.2052
  11611  O        -13.3840   14.0680   24.9580 O.3  3872  WAT3872    -0.4105
  11612  H1       -13.6840   13.9450   25.8590 H    3872  WAT3872     0.2052
  11613  H2       -13.4900   13.2090   24.5500 H    3872  WAT3872     0.2052
  11614  O         -0.6150   13.8480   19.6610 O.3  3873  WAT3873    -0.4105
  11615  H1        -1.4450   13.9160   20.1320 H    3873  WAT3873     0.2052
  11616  H2        -0.4370   14.7390   19.3580 H    3873  WAT3873     0.2052
  11617  O         -1.1590   10.5930   22.1640 O.3  3874  WAT3874    -0.4105
  11618  H1        -0.3970   11.1630   22.2700 H    3874  WAT3874     0.2052
  11619  H2        -1.1440   10.0260   22.9350 H    3874  WAT3874     0.2052
  11620  O        -17.6590    9.1170   26.3950 O.3  3875  WAT3875    -0.4105
  11621  H1       -18.3140    8.8480   25.7510 H    3875  WAT3875     0.2052
  11622  H2       -16.8210    9.0070   25.9450 H    3875  WAT3875     0.2052
  11623  O         -0.1530   11.4480   27.0090 O.3  3876  WAT3876    -0.4105
  11624  H1         0.2180   10.6650   26.6020 H    3876  WAT3876     0.2052
  11625  H2         0.4870   12.1370   26.8300 H    3876  WAT3876     0.2052
  11626  O         -1.1070   10.8860   19.3220 O.3  3877  WAT3877    -0.4105
  11627  H1        -0.8320   11.7940   19.1940 H    3877  WAT3877     0.2052
  11628  H2        -1.2960   10.8230   20.2580 H    3877  WAT3877     0.2052
  11629  O         -4.7090    3.9110   20.6170 O.3  3878  WAT3878    -0.4105
  11630  H1        -4.2910    3.7240   19.7770 H    3878  WAT3878     0.2052
  11631  H2        -5.0160    3.0590   20.9270 H    3878  WAT3878     0.2052
  11632  O         -1.2100    8.8230   24.3150 O.3  3879  WAT3879    -0.4105
  11633  H1        -1.5860    8.0560   23.8830 H    3879  WAT3879     0.2052
  11634  H2        -1.9400    9.2050   24.8020 H    3879  WAT3879     0.2052
  11635  O        -18.4450    6.3270   22.3380 O.3  3880  WAT3880    -0.4105
  11636  H1       -19.3480    6.5900   22.1630 H    3880  WAT3880     0.2052
  11637  H2       -17.9610    6.5980   21.5580 H    3880  WAT3880     0.2052
  11638  O         -1.9350    7.0490   27.6150 O.3  3881  WAT3881    -0.4105
  11639  H1        -1.4120    6.5550   26.9840 H    3881  WAT3881     0.2052
  11640  H2        -1.3490    7.1840   28.3600 H    3881  WAT3881     0.2052
  11641  O        -15.9020    5.3830   20.2470 O.3  3882  WAT3882    -0.4105
  11642  H1       -15.1930    4.9610   19.7620 H    3882  WAT3882     0.2052
  11643  H2       -16.6180    5.4510   19.6150 H    3882  WAT3882     0.2052
  11644  O        -16.2550    1.4370   19.2870 O.3  3883  WAT3883    -0.4105
  11645  H1       -15.5320    1.9780   19.6060 H    3883  WAT3883     0.2052
  11646  H2       -15.9820    1.1630   18.4120 H    3883  WAT3883     0.2052
  11647  O         -2.4450    6.3060   23.5550 O.3  3884  WAT3884    -0.4105
  11648  H1        -1.9490    6.0730   24.3390 H    3884  WAT3884     0.2052
  11649  H2        -2.6440    5.4670   23.1380 H    3884  WAT3884     0.2052
  11650  O        -16.5650    0.6880   29.1900 O.3  3885  WAT3885    -0.4105
  11651  H1       -15.9180    0.1370   28.7490 H    3885  WAT3885     0.2052
  11652  H2       -16.1450    0.9420   30.0110 H    3885  WAT3885     0.2052
  11653  O         -1.0170    4.9420   26.0880 O.3  3886  WAT3886    -0.4105
  11654  H1        -1.1270    4.7880   27.0270 H    3886  WAT3886     0.2052
  11655  H2        -0.2560    4.4140   25.8460 H    3886  WAT3886     0.2052
  11656  O         -0.1280    2.7730   19.3290 O.3  3887  WAT3887    -0.4105
  11657  H1         0.7970    2.6410   19.1210 H    3887  WAT3887     0.2052
  11658  H2        -0.1500    2.8520   20.2830 H    3887  WAT3887     0.2052
  11659  O         -0.0540    3.5440   21.9550 O.3  3888  WAT3888    -0.4105
  11660  H1        -0.8490    3.4790   22.4840 H    3888  WAT3888     0.2052
  11661  H2         0.1510    4.4790   21.9430 H    3888  WAT3888     0.2052
  11662  O         -3.1120   17.5830   25.9480 O.3  3889  WAT3889    -0.4105
  11663  H1        -2.5160   17.2620   25.2720 H    3889  WAT3889     0.2052
  11664  H2        -2.8540   17.1110   26.7400 H    3889  WAT3889     0.2052
  11665  O         -2.5610   18.2330   29.7780 O.3  3890  WAT3890    -0.4105
  11666  H1        -3.0200   18.9850   29.4040 H    3890  WAT3890     0.2052
  11667  H2        -3.1890   17.5140   29.7200 H    3890  WAT3890     0.2052
  11668  O        -12.1310   16.5420   28.9530 O.3  3891  WAT3891    -0.4105
  11669  H1       -11.6150   15.9300   28.4280 H    3891  WAT3891     0.2052
  11670  H2       -11.4810   17.0450   29.4440 H    3891  WAT3891     0.2052
  11671  O         -3.6220    1.8740   28.4040 O.3  3892  WAT3892    -0.4105
  11672  H1        -3.1810    1.8180   27.5570 H    3892  WAT3892     0.2052
  11673  H2        -3.8910    2.7900   28.4760 H    3892  WAT3892     0.2052
  11674  O         -1.7580    1.5050   26.4150 O.3  3893  WAT3893    -0.4105
  11675  H1        -1.8190    0.5620   26.2680 H    3893  WAT3893     0.2052
  11676  H2        -0.9790    1.6130   26.9610 H    3893  WAT3893     0.2052
  11677  O        -17.4530   17.6450   25.3780 O.3  3894  WAT3894    -0.4105
  11678  H1       -17.6200   17.0120   26.0760 H    3894  WAT3894     0.2052
  11679  H2       -18.3190   17.8510   25.0270 H    3894  WAT3894     0.2052
  11680  O        -16.8300    1.4760   22.8810 O.3  3895  WAT3895    -0.4105
  11681  H1       -16.0720    1.5890   22.3070 H    3895  WAT3895     0.2052
  11682  H2       -17.2920    2.3130   22.8350 H    3895  WAT3895     0.2052
  11683  O        -10.2880    3.5900   25.8710 O.3  3896  WAT3896    -0.4105
  11684  H1       -11.1010    3.2160   25.5310 H    3896  WAT3896     0.2052
  11685  H2        -9.7840    2.8350   26.1730 H    3896  WAT3896     0.2052
  11686  O         -5.7860    0.2550   27.1090 O.3  3897  WAT3897    -0.4105
  11687  H1        -5.1830    0.8270   27.5840 H    3897  WAT3897     0.2052
  11688  H2        -6.5270    0.8180   26.8870 H    3897  WAT3897     0.2052
  11689  O         -2.6430    0.6570   22.3840 O.3  3898  WAT3898    -0.4105
  11690  H1        -2.4470    1.5550   22.6500 H    3898  WAT3898     0.2052
  11691  H2        -3.4300    0.4250   22.8770 H    3898  WAT3898     0.2052
  11692  O        -15.8460   16.3380   22.8230 O.3  3899  WAT3899    -0.4105
  11693  H1       -16.3720   16.7190   22.1190 H    3899  WAT3899     0.2052
  11694  H2       -15.9220   16.9630   23.5440 H    3899  WAT3899     0.2052
  11695  O        -14.4570    2.0030   21.4210 O.3  3900  WAT3900    -0.4105
  11696  H1       -13.9280    1.2160   21.2920 H    3900  WAT3900     0.2052
  11697  H2       -13.8250    2.6820   21.6550 H    3900  WAT3900     0.2052
  11698  O        -12.2640    1.7400   24.4760 O.3  3901  WAT3901    -0.4105
  11699  H1       -12.8930    1.0390   24.6430 H    3901  WAT3901     0.2052
  11700  H2       -12.8030    2.5010   24.2590 H    3901  WAT3901     0.2052
  11701  O         -1.0900   17.8970   24.1440 O.3  3902  WAT3902    -0.4105
  11702  H1        -0.9150   17.2110   23.5000 H    3902  WAT3902     0.2052
  11703  H2        -1.7880   18.4210   23.7520 H    3902  WAT3902     0.2052
  11704  O        -13.2470   18.2860   21.6980 O.3  3903  WAT3903    -0.4105
  11705  H1       -12.5150   18.0020   21.1500 H    3903  WAT3903     0.2052
  11706  H2       -12.9880   18.0480   22.5880 H    3903  WAT3903     0.2052
  11707  O        -14.0860   14.4030   21.7020 O.3  3904  WAT3904    -0.4105
  11708  H1       -14.7150   14.8710   22.2510 H    3904  WAT3904     0.2052
  11709  H2       -13.9710   13.5580   22.1370 H    3904  WAT3904     0.2052
  11710  O         -6.6310    8.4530    7.8520 O.3  3905  WAT3905    -0.4105
  11711  H1        -6.7110    7.5390    7.5820 H    3905  WAT3905     0.2052
  11712  H2        -7.0440    8.9500    7.1460 H    3905  WAT3905     0.2052
  11713  O         -8.4990   10.2310    9.7330 O.3  3906  WAT3906    -0.4105
  11714  H1        -9.2750    9.7510   10.0230 H    3906  WAT3906     0.2052
  11715  H2        -7.8480    9.5520    9.5590 H    3906  WAT3906     0.2052
  11716  O        -14.4820   10.5430   10.6110 O.3  3907  WAT3907    -0.4105
  11717  H1       -15.3140   10.2880   11.0110 H    3907  WAT3907     0.2052
  11718  H2       -13.8740   10.6140   11.3470 H    3907  WAT3907     0.2052
  11719  O         -4.4780   14.6370    8.5130 O.3  3908  WAT3908    -0.4105
  11720  H1        -4.9400   13.8660    8.8420 H    3908  WAT3908     0.2052
  11721  H2        -3.6660   14.6640    9.0190 H    3908  WAT3908     0.2052
  11722  O        -14.5020   14.5770   10.8070 O.3  3909  WAT3909    -0.4105
  11723  H1       -14.1990   13.6870   10.6280 H    3909  WAT3909     0.2052
  11724  H2       -13.7580   15.1340   10.5790 H    3909  WAT3909     0.2052
  11725  O        -16.0730    5.5030    4.3950 O.3  3910  WAT3910    -0.4105
  11726  H1       -16.9610    5.8450    4.2930 H    3910  WAT3910     0.2052
  11727  H2       -15.7890    5.3030    3.5030 H    3910  WAT3910     0.2052
  11728  O        -18.1100    8.1040   10.2790 O.3  3911  WAT3911    -0.4105
  11729  H1       -17.5380    7.3360   10.2800 H    3911  WAT3911     0.2052
  11730  H2       -18.1100    8.4030    9.3700 H    3911  WAT3911     0.2052
  11731  O         -8.2520   16.9230    8.1340 O.3  3912  WAT3912    -0.4105
  11732  H1        -8.8710   17.3790    7.5630 H    3912  WAT3912     0.2052
  11733  H2        -7.3970   17.0780    7.7330 H    3912  WAT3912     0.2052
  11734  O         -9.0580   12.9070    9.7400 O.3  3913  WAT3913    -0.4105
  11735  H1        -9.1270   11.9660    9.5790 H    3913  WAT3913     0.2052
  11736  H2        -8.2960   12.9970   10.3130 H    3913  WAT3913     0.2052
  11737  O        -16.8670    3.5120   12.0660 O.3  3914  WAT3914    -0.4105
  11738  H1       -17.0470    2.6150   12.3460 H    3914  WAT3914     0.2052
  11739  H2       -17.2690    4.0600   12.7410 H    3914  WAT3914     0.2052
  11740  O         -8.0270    5.7140    9.9670 O.3  3915  WAT3915    -0.4105
  11741  H1        -7.6510    4.8410    9.8550 H    3915  WAT3915     0.2052
  11742  H2        -8.1250    6.0500    9.0760 H    3915  WAT3915     0.2052
  11743  O        -13.8970    4.0870    5.4290 O.3  3916  WAT3916    -0.4105
  11744  H1       -13.7900    4.9870    5.7360 H    3916  WAT3916     0.2052
  11745  H2       -14.8080    4.0380    5.1380 H    3916  WAT3916     0.2052
  11746  O         -4.2450    3.2090    6.9000 O.3  3917  WAT3917    -0.4105
  11747  H1        -3.4240    2.7190    6.9430 H    3917  WAT3917     0.2052
  11748  H2        -4.2120    3.7990    7.6530 H    3917  WAT3917     0.2052
  11749  O        -16.2490    6.0080   10.6740 O.3  3918  WAT3918    -0.4105
  11750  H1       -15.5680    6.2720   11.2930 H    3918  WAT3918     0.2052
  11751  H2       -16.5640    5.1690   11.0080 H    3918  WAT3918     0.2052
  11752  O        -12.0560    7.0550    9.7620 O.3  3919  WAT3919    -0.4105
  11753  H1       -11.5480    7.5530   10.4020 H    3919  WAT3919     0.2052
  11754  H2       -11.5250    6.2790    9.5850 H    3919  WAT3919     0.2052
  11755  O          0.0450    5.2260   13.4640 O.3  3920  WAT3920    -0.4105
  11756  H1        -0.6600    5.6140   12.9460 H    3920  WAT3920     0.2052
  11757  H2         0.3110    5.9210   14.0670 H    3920  WAT3920     0.2052
  11758  O        -13.7730    1.6950   14.0280 O.3  3921  WAT3921    -0.4105
  11759  H1       -13.7710    2.2120   13.2220 H    3921  WAT3921     0.2052
  11760  H2       -14.6020    1.2180   14.0050 H    3921  WAT3921     0.2052
  11761  O         -7.3850   11.8070    5.5270 O.3  3922  WAT3922    -0.4105
  11762  H1        -8.0040   12.2720    4.9630 H    3922  WAT3922     0.2052
  11763  H2        -6.8730   12.5000    5.9440 H    3922  WAT3922     0.2052
  11764  O        -12.5220   11.3350   12.2050 O.3  3923  WAT3923    -0.4105
  11765  H1       -12.8550   11.9610   12.8470 H    3923  WAT3923     0.2052
  11766  H2       -12.3460   11.8610   11.4250 H    3923  WAT3923     0.2052
  11767  O         -4.0090    5.1490    9.6730 O.3  3924  WAT3924    -0.4105
  11768  H1        -4.7130    5.4380   10.2530 H    3924  WAT3924     0.2052
  11769  H2        -3.6480    5.9590    9.3130 H    3924  WAT3924     0.2052
  11770  O        -14.0910    3.4060   12.0350 O.3  3925  WAT3925    -0.4105
  11771  H1       -13.7490    4.2500   11.7400 H    3925  WAT3925     0.2052
  11772  H2       -15.0290    3.5540   12.1510 H    3925  WAT3925     0.2052
  11773  O        -13.3100   13.3030   14.0200 O.3  3926  WAT3926    -0.4105
  11774  H1       -12.6930   13.9780   13.7390 H    3926  WAT3926     0.2052
  11775  H2       -14.1710   13.7110   13.9290 H    3926  WAT3926     0.2052
  11776  O        -18.0170   12.4930    2.9010 O.3  3927  WAT3927    -0.4105
  11777  H1       -18.3940   12.9810    2.1690 H    3927  WAT3927     0.2052
  11778  H2       -17.7600   13.1650    3.5310 H    3927  WAT3927     0.2052
  11779  O         -2.3930   14.7670   11.9360 O.3  3928  WAT3928    -0.4105
  11780  H1        -3.0760   15.4360   11.9270 H    3928  WAT3928     0.2052
  11781  H2        -1.8530   14.9650   11.1700 H    3928  WAT3928     0.2052
  11782  O         -0.9400    4.5950   10.0640 O.3  3929  WAT3929    -0.4105
  11783  H1        -1.8880    4.6280   10.1950 H    3929  WAT3929     0.2052
  11784  H2        -0.6150    5.4080   10.4490 H    3929  WAT3929     0.2052
  11785  O        -10.4080    0.8940    8.3590 O.3  3930  WAT3930    -0.4105
  11786  H1       -10.1010    0.3390    7.6430 H    3930  WAT3930     0.2052
  11787  H2       -11.3380    1.0290    8.1770 H    3930  WAT3930     0.2052
  11788  O         -4.8570   16.6110   10.6500 O.3  3931  WAT3931    -0.4105
  11789  H1        -4.8440   16.2070    9.7820 H    3931  WAT3931     0.2052
  11790  H2        -5.4090   17.3860   10.5460 H    3931  WAT3931     0.2052
  11791  O         -3.5620   13.3330    5.7390 O.3  3932  WAT3932    -0.4105
  11792  H1        -3.6730   12.3900    5.8640 H    3932  WAT3932     0.2052
  11793  H2        -3.5650   13.6940    6.6250 H    3932  WAT3932     0.2052
  11794  O         -5.4580   11.5140   11.9780 O.3  3933  WAT3933    -0.4105
  11795  H1        -5.0410   11.3000   11.1440 H    3933  WAT3933     0.2052
  11796  H2        -4.7340   11.7710   12.5490 H    3933  WAT3933     0.2052
  11797  O         -8.0200    8.9590    5.0950 O.3  3934  WAT3934    -0.4105
  11798  H1        -8.9470    8.8930    5.3240 H    3934  WAT3934     0.2052
  11799  H2        -7.8680    9.8970    4.9810 H    3934  WAT3934     0.2052
  11800  O         -8.0330    5.2310    2.0920 O.3  3935  WAT3935    -0.4105
  11801  H1        -8.9730    5.3920    2.1770 H    3935  WAT3935     0.2052
  11802  H2        -7.7150    5.9490    1.5460 H    3935  WAT3935     0.2052
  11803  O         -1.5120    9.9130   12.0700 O.3  3936  WAT3936    -0.4105
  11804  H1        -2.3400    9.9820   11.5950 H    3936  WAT3936     0.2052
  11805  H2        -0.9170   10.4980   11.6020 H    3936  WAT3936     0.2052
  11806  O         -3.9900   10.5210    5.5990 O.3  3937  WAT3937    -0.4105
  11807  H1        -4.6090   10.1830    4.9520 H    3937  WAT3937     0.2052
  11808  H2        -4.0080    9.8770    6.3070 H    3937  WAT3937     0.2052
  11809  O         -4.5480    6.7000   13.0160 O.3  3938  WAT3938    -0.4105
  11810  H1        -4.9610    7.5250   13.2700 H    3938  WAT3938     0.2052
  11811  H2        -5.2800    6.1140   12.8230 H    3938  WAT3938     0.2052
  11812  O        -12.4140    9.4860    7.8770 O.3  3939  WAT3939    -0.4105
  11813  H1       -12.8190    8.7730    7.3820 H    3939  WAT3939     0.2052
  11814  H2       -12.3280    9.1410    8.7660 H    3939  WAT3939     0.2052
  11815  O        -11.9460   13.1720   10.0410 O.3  3940  WAT3940    -0.4105
  11816  H1       -12.2430   12.5670    9.3620 H    3940  WAT3940     0.2052
  11817  H2       -10.9960   13.2100    9.9300 H    3940  WAT3940     0.2052
  11818  O        -13.7020    6.2600   11.6570 O.3  3941  WAT3941    -0.4105
  11819  H1       -13.1500    6.3690   10.8830 H    3941  WAT3941     0.2052
  11820  H2       -13.1870    6.6340   12.3730 H    3941  WAT3941     0.2052
  11821  O         -3.8580   16.7460   13.7040 O.3  3942  WAT3942    -0.4105
  11822  H1        -4.3350   17.5530   13.5110 H    3942  WAT3942     0.2052
  11823  H2        -4.5420   16.0930   13.8560 H    3942  WAT3942     0.2052
  11824  O        -12.8540   12.9110   16.6920 O.3  3943  WAT3943    -0.4105
  11825  H1       -13.7520   13.1350   16.9390 H    3943  WAT3943     0.2052
  11826  H2       -12.8290   13.0340   15.7430 H    3943  WAT3943     0.2052
  11827  O         -5.8140    9.7600    2.6060 O.3  3944  WAT3944    -0.4105
  11828  H1        -5.3750    8.9220    2.4600 H    3944  WAT3944     0.2052
  11829  H2        -5.1010   10.3930    2.6930 H    3944  WAT3944     0.2052
  11830  O        -14.0270    9.7820   15.2680 O.3  3945  WAT3945    -0.4105
  11831  H1       -14.1670   10.6540   15.6370 H    3945  WAT3945     0.2052
  11832  H2       -14.9090    9.4390   15.1230 H    3945  WAT3945     0.2052
  11833  O         -7.7040   14.6990    6.5740 O.3  3946  WAT3946    -0.4105
  11834  H1        -7.2650   15.4420    6.1600 H    3946  WAT3946     0.2052
  11835  H2        -7.7660   14.9420    7.4980 H    3946  WAT3946     0.2052
  11836  O        -12.2290   15.7240   17.4760 O.3  3947  WAT3947    -0.4105
  11837  H1       -12.2580   16.1280   16.6090 H    3947  WAT3947     0.2052
  11838  H2       -12.3930   14.7950   17.3130 H    3947  WAT3947     0.2052
  11839  O         -2.2320    1.0140    0.9200 O.3  3948  WAT3948    -0.4105
  11840  H1        -2.5450    1.1070    1.8200 H    3948  WAT3948     0.2052
  11841  H2        -1.4710    1.5920    0.8700 H    3948  WAT3948     0.2052
  11842  O        -15.7140    8.3800    5.3780 O.3  3949  WAT3949    -0.4105
  11843  H1       -15.8340    9.1060    4.7660 H    3949  WAT3949     0.2052
  11844  H2       -16.0240    7.6100    4.9010 H    3949  WAT3949     0.2052
  11845  O         -0.2780   16.5070   18.7730 O.3  3950  WAT3950    -0.4105
  11846  H1         0.1980   16.9850   19.4520 H    3950  WAT3950     0.2052
  11847  H2         0.3430   16.4380   18.0470 H    3950  WAT3950     0.2052
  11848  O        -18.0750   11.5520   11.1850 O.3  3951  WAT3951    -0.4105
  11849  H1       -17.9970   11.6860   10.2400 H    3951  WAT3951     0.2052
  11850  H2       -17.4610   10.8430   11.3780 H    3951  WAT3951     0.2052
  11851  O        -16.8310   13.2520    7.5960 O.3  3952  WAT3952    -0.4105
  11852  H1       -17.2380   13.3930    6.7410 H    3952  WAT3952     0.2052
  11853  H2       -15.9390   12.9680    7.3930 H    3952  WAT3952     0.2052
  11854  O         -0.8750   13.6980   15.9330 O.3  3953  WAT3953    -0.4105
  11855  H1        -0.7480   13.4590   15.0140 H    3953  WAT3953     0.2052
  11856  H2        -0.8320   12.8660   16.4050 H    3953  WAT3953     0.2052
  11857  O         -7.0130   17.4010   14.5020 O.3  3954  WAT3954    -0.4105
  11858  H1        -6.4980   17.3120   15.3040 H    3954  WAT3954     0.2052
  11859  H2        -7.8560   17.7470   14.7950 H    3954  WAT3954     0.2052
  11860  O         -5.0370   17.6860    3.9310 O.3  3955  WAT3955    -0.4105
  11861  H1        -5.1970   17.3970    4.8290 H    3955  WAT3955     0.2052
  11862  H2        -5.2030   16.9100    3.3950 H    3955  WAT3955     0.2052
  11863  O        -12.5590   17.4660    5.7080 O.3  3956  WAT3956    -0.4105
  11864  H1       -12.7340   16.5500    5.4950 H    3956  WAT3956     0.2052
  11865  H2       -13.4130   17.8250    5.9480 H    3956  WAT3956     0.2052
  11866  O         -5.3350   15.1950    2.4900 O.3  3957  WAT3957    -0.4105
  11867  H1        -6.0280   15.1930    1.8310 H    3957  WAT3957     0.2052
  11868  H2        -4.5930   14.7710    2.0600 H    3957  WAT3957     0.2052
  11869  O         -5.7700   16.8210    6.5650 O.3  3958  WAT3958    -0.4105
  11870  H1        -5.3140   16.0400    6.8790 H    3958  WAT3958     0.2052
  11871  H2        -5.4310   17.5320    7.1090 H    3958  WAT3958     0.2052
  11872  O         -1.0220    5.7510   16.8980 O.3  3959  WAT3959    -0.4105
  11873  H1        -1.6380    6.2590   16.3690 H    3959  WAT3959     0.2052
  11874  H2        -1.3420    4.8510   16.8400 H    3959  WAT3959     0.2052
  11875  O        -18.0200   12.5930   13.7240 O.3  3960  WAT3960    -0.4105
  11876  H1       -17.8560   12.1240   12.9060 H    3960  WAT3960     0.2052
  11877  H2       -17.5540   12.0850   14.3890 H    3960  WAT3960     0.2052
  11878  O        -13.2480    1.7240    8.7600 O.3  3961  WAT3961    -0.4105
  11879  H1       -13.6910    2.5050    8.4290 H    3961  WAT3961     0.2052
  11880  H2       -12.6890    2.0470    9.4680 H    3961  WAT3961     0.2052
  11881  O         -8.9610    4.5900   14.3640 O.3  3962  WAT3962    -0.4105
  11882  H1        -9.4230    4.7990   15.1760 H    3962  WAT3962     0.2052
  11883  H2        -9.3630    3.7760   14.0610 H    3962  WAT3962     0.2052
  11884  O         -3.9600    5.8110   15.4940 O.3  3963  WAT3963    -0.4105
  11885  H1        -4.8110    5.5120   15.8150 H    3963  WAT3963     0.2052
  11886  H2        -4.1200    6.0560   14.5820 H    3963  WAT3963     0.2052
  11887  O         -6.8650    7.3120   17.5930 O.3  3964  WAT3964    -0.4105
  11888  H1        -6.5400    6.4780   17.2540 H    3964  WAT3964     0.2052
  11889  H2        -6.0770    7.8340   17.7410 H    3964  WAT3964     0.2052
  11890  O        -10.1320    1.3450    3.6410 O.3  3965  WAT3965    -0.4105
  11891  H1       -10.7560    1.3410    4.3660 H    3965  WAT3965     0.2052
  11892  H2       -10.2190    0.4780    3.2450 H    3965  WAT3965     0.2052
  11893  O        -11.2100    2.2680   10.6190 O.3  3966  WAT3966    -0.4105
  11894  H1       -10.9130    3.1750   10.5390 H    3966  WAT3966     0.2052
  11895  H2       -10.6620    1.7800   10.0050 H    3966  WAT3966     0.2052
  11896  O        -13.4560    6.8470    6.4890 O.3  3967  WAT3967    -0.4105
  11897  H1       -13.6820    6.6310    7.3930 H    3967  WAT3967     0.2052
  11898  H2       -14.2370    7.2800    6.1430 H    3967  WAT3967     0.2052
  11899  O         -6.2260    6.8530    5.0880 O.3  3968  WAT3968    -0.4105
  11900  H1        -6.8260    7.5770    4.9040 H    3968  WAT3968     0.2052
  11901  H2        -5.6790    6.7910    4.3050 H    3968  WAT3968     0.2052
  11902  O        -11.0160    7.7460   17.1550 O.3  3969  WAT3969    -0.4105
  11903  H1       -11.1120    6.8050   17.0050 H    3969  WAT3969     0.2052
  11904  H2       -10.1730    7.9670   16.7590 H    3969  WAT3969     0.2052
  11905  O         -7.6200    5.4900    7.1180 O.3  3970  WAT3970    -0.4105
  11906  H1        -7.2270    5.8070    6.3050 H    3970  WAT3970     0.2052
  11907  H2        -7.2580    4.6110    7.2320 H    3970  WAT3970     0.2052
  11908  O        -15.8850    4.1570   15.3080 O.3  3971  WAT3971    -0.4105
  11909  H1       -16.2790    5.0040   15.5150 H    3971  WAT3971     0.2052
  11910  H2       -16.5730    3.5200   15.4990 H    3971  WAT3971     0.2052
  11911  O         -9.3110    4.2400   18.3780 O.3  3972  WAT3972    -0.4105
  11912  H1       -10.0010    4.0480   19.0120 H    3972  WAT3972     0.2052
  11913  H2        -8.5680    4.5240   18.9100 H    3972  WAT3972     0.2052
  11914  O        -18.5840    2.0800    9.3410 O.3  3973  WAT3973    -0.4105
  11915  H1       -18.8720    2.6500   10.0530 H    3973  WAT3973     0.2052
  11916  H2       -17.8390    1.6000    9.7040 H    3973  WAT3973     0.2052
  11917  O        -18.3970    6.0220    0.5510 O.3  3974  WAT3974    -0.4105
  11918  H1       -18.4790    6.9650    0.6930 H    3974  WAT3974     0.2052
  11919  H2       -18.7480    5.8790   -0.3280 H    3974  WAT3974     0.2052
  11920  O         -7.0340    8.0800   11.2130 O.3  3975  WAT3975    -0.4105
  11921  H1        -7.7660    8.5890   11.5620 H    3975  WAT3975     0.2052
  11922  H2        -7.4320    7.2630   10.9120 H    3975  WAT3975     0.2052
  11923  O        -10.5970    4.7560    9.6180 O.3  3976  WAT3976    -0.4105
  11924  H1       -10.5930    4.3150    8.7690 H    3976  WAT3976     0.2052
  11925  H2        -9.7020    5.0770    9.7250 H    3976  WAT3976     0.2052
  11926  O        -14.7460    4.6380    8.5780 O.3  3977  WAT3977    -0.4105
  11927  H1       -15.0860    5.1160    9.3340 H    3977  WAT3977     0.2052
  11928  H2       -15.5090    4.1850    8.2180 H    3977  WAT3977     0.2052
  11929  O        -10.5350    5.7570    2.6090 O.3  3978  WAT3978    -0.4105
  11930  H1       -10.4130    5.7160    3.5580 H    3978  WAT3978     0.2052
  11931  H2       -10.9200    6.6190    2.4540 H    3978  WAT3978     0.2052
  11932  O         -6.5720    3.5340   10.6250 O.3  3979  WAT3979    -0.4105
  11933  H1        -6.5550    3.9840   11.4690 H    3979  WAT3979     0.2052
  11934  H2        -6.8200    2.6340   10.8390 H    3979  WAT3979     0.2052
  11935  O        -11.5230    8.0670    2.0070 O.3  3980  WAT3980    -0.4105
  11936  H1       -12.0910    7.6190    1.3810 H    3980  WAT3980     0.2052
  11937  H2       -10.8140    8.4260    1.4740 H    3980  WAT3980     0.2052
  11938  O         -3.1450    0.9470   16.4640 O.3  3981  WAT3981    -0.4105
  11939  H1        -2.8200    0.2160   16.9900 H    3981  WAT3981     0.2052
  11940  H2        -3.1090    0.6280   15.5620 H    3981  WAT3981     0.2052
  11941  O        -16.4460   11.9680   15.8840 O.3  3982  WAT3982    -0.4105
  11942  H1       -16.8300   11.3280   16.4820 H    3982  WAT3982     0.2052
  11943  H2       -16.1340   12.6720   16.4530 H    3982  WAT3982     0.2052
  11944  O        -10.2960    8.8160   11.3650 O.3  3983  WAT3983    -0.4105
  11945  H1        -9.9290    8.3420   12.1110 H    3983  WAT3983     0.2052
  11946  H2       -10.4850    9.6900   11.7060 H    3983  WAT3983     0.2052
  11947  O        -17.4320    3.5600    7.4940 O.3  3984  WAT3984    -0.4105
  11948  H1       -17.7170    3.1960    8.3320 H    3984  WAT3984     0.2052
  11949  H2       -17.4940    2.8280    6.8800 H    3984  WAT3984     0.2052
  11950  O        -12.5060    7.8570   13.6830 O.3  3985  WAT3985    -0.4105
  11951  H1       -12.8100    8.7360   13.9080 H    3985  WAT3985     0.2052
  11952  H2       -11.5510    7.9170   13.7190 H    3985  WAT3985     0.2052
  11953  O        -13.9780   12.0630    4.2800 O.3  3986  WAT3986    -0.4105
  11954  H1       -14.7520   11.5230    4.1200 H    3986  WAT3986     0.2052
  11955  H2       -13.2480   11.5430    3.9420 H    3986  WAT3986     0.2052
  11956  O         -3.2190   11.0590   10.0730 O.3  3987  WAT3987    -0.4105
  11957  H1        -2.4990   11.5550    9.6820 H    3987  WAT3987     0.2052
  11958  H2        -3.4210   10.3810    9.4280 H    3987  WAT3987     0.2052
  11959  O         -7.7580    2.4530    4.2150 O.3  3988  WAT3988    -0.4105
  11960  H1        -8.5720    1.9540    4.1400 H    3988  WAT3988     0.2052
  11961  H2        -7.9520    3.2930    3.7990 H    3988  WAT3988     0.2052
  11962  O         -7.8370   11.1300   15.9590 O.3  3989  WAT3989    -0.4105
  11963  H1        -7.9030   10.2100   15.7050 H    3989  WAT3989     0.2052
  11964  H2        -8.4670   11.2280   16.6740 H    3989  WAT3989     0.2052
  11965  O         -5.0430    6.8250    2.5120 O.3  3990  WAT3990    -0.4105
  11966  H1        -4.1550    7.1370    2.3370 H    3990  WAT3990     0.2052
  11967  H2        -5.0730    5.9520    2.1200 H    3990  WAT3990     0.2052
  11968  O        -13.9340   11.7310    7.9180 O.3  3991  WAT3991    -0.4105
  11969  H1       -13.4160   10.9280    7.8630 H    3991  WAT3991     0.2052
  11970  H2       -14.3860   11.6690    8.7590 H    3991  WAT3991     0.2052
  11971  O         -9.0470   12.9970    3.1910 O.3  3992  WAT3992    -0.4105
  11972  H1        -8.7060   13.7420    2.6950 H    3992  WAT3992     0.2052
  11973  H2        -9.8760   13.3110    3.5530 H    3992  WAT3992     0.2052
  11974  O        -16.4500    8.6970   14.8300 O.3  3993  WAT3993    -0.4105
  11975  H1       -16.8080    9.3620   15.4180 H    3993  WAT3993     0.2052
  11976  H2       -16.7440    7.8650   15.2020 H    3993  WAT3993     0.2052
  11977  O        -13.2480    9.1550   17.7140 O.3  3994  WAT3994    -0.4105
  11978  H1       -13.5480    9.3010   16.8170 H    3994  WAT3994     0.2052
  11979  H2       -12.4770    8.5960   17.6220 H    3994  WAT3994     0.2052
  11980  O         -7.9050   13.9520   15.7100 O.3  3995  WAT3995    -0.4105
  11981  H1        -7.8910   13.0200   15.4920 H    3995  WAT3995     0.2052
  11982  H2        -8.6130   14.0380   16.3490 H    3995  WAT3995     0.2052
  11983  O         -2.7720    8.1360    1.9800 O.3  3996  WAT3996    -0.4105
  11984  H1        -2.8550    8.5680    1.1290 H    3996  WAT3996     0.2052
  11985  H2        -2.0520    8.5960    2.4120 H    3996  WAT3996     0.2052
  11986  O         -1.6940   10.5930   15.0570 O.3  3997  WAT3997    -0.4105
  11987  H1        -2.4200   11.1860   14.8600 H    3997  WAT3997     0.2052
  11988  H2        -1.1670   10.5850   14.2580 H    3997  WAT3997     0.2052
  11989  O         -1.7430   14.9900    4.7080 O.3  3998  WAT3998    -0.4105
  11990  H1        -2.3850   14.3360    4.9820 H    3998  WAT3998     0.2052
  11991  H2        -2.1300   15.3960    3.9320 H    3998  WAT3998     0.2052
  11992  O         -6.1640   12.3190    8.5550 O.3  3999  WAT3999    -0.4105
  11993  H1        -5.8120   11.7220    7.8950 H    3999  WAT3999     0.2052
  11994  H2        -7.0480   11.9930    8.7260 H    3999  WAT3999     0.2052
  11995  O        -10.0780   13.0790    5.9620 O.3  4000  WAT4000    -0.4105
  11996  H1        -9.3910   13.6260    6.3430 H    4000  WAT4000     0.2052
  11997  H2       -10.8650   13.6230    5.9970 H    4000  WAT4000     0.2052
  11998  O        -17.9390    8.6960    1.4540 O.3  4001  WAT4001    -0.4105
  11999  H1       -17.0690    8.9790    1.7370 H    4001  WAT4001     0.2052
  12000  H2       -18.4300    9.5100    1.3390 H    4001  WAT4001     0.2052
  12001  O        -10.7750   10.0830    5.5750 O.3  4002  WAT4002    -0.4105
  12002  H1       -10.3190   10.8940    5.8010 H    4002  WAT4002     0.2052
  12003  H2       -11.1270    9.7660    6.4060 H    4002  WAT4002     0.2052
  12004  O         -8.4720   15.5940   12.8040 O.3  4003  WAT4003    -0.4105
  12005  H1        -7.8280   15.8000   13.4810 H    4003  WAT4003     0.2052
  12006  H2        -8.1090   14.8330   12.3510 H    4003  WAT4003     0.2052
  12007  O        -14.8740    0.4270    6.0470 O.3  4004  WAT4004    -0.4105
  12008  H1       -15.0030    0.4190    6.9950 H    4004  WAT4004     0.2052
  12009  H2       -15.6980    0.7650    5.6960 H    4004  WAT4004     0.2052
  12010  O         -7.1990   13.5970   11.5220 O.3  4005  WAT4005    -0.4105
  12011  H1        -6.5570   12.8970   11.6350 H    4005  WAT4005     0.2052
  12012  H2        -6.6740   14.3770   11.3410 H    4005  WAT4005     0.2052
  12013  O         -3.3530   13.8820    1.2460 O.3  4006  WAT4006    -0.4105
  12014  H1        -3.5800   13.1650    1.8380 H    4006  WAT4006     0.2052
  12015  H2        -3.7440   13.6330    0.4080 H    4006  WAT4006     0.2052
  12016  O         -5.4250   14.3970   14.7250 O.3  4007  WAT4007    -0.4105
  12017  H1        -5.0890   14.9830   15.4030 H    4007  WAT4007     0.2052
  12018  H2        -6.3450   14.2660   14.9550 H    4007  WAT4007     0.2052
  12019  O        -17.5720   17.9090    2.0200 O.3  4008  WAT4008    -0.4105
  12020  H1       -17.2120   18.5080    1.3660 H    4008  WAT4008     0.2052
  12021  H2       -17.7120   18.4550    2.7930 H    4008  WAT4008     0.2052
  12022  O        -17.8750    2.1860   15.5080 O.3  4009  WAT4009    -0.4105
  12023  H1       -18.5890    2.3860   16.1130 H    4009  WAT4009     0.2052
  12024  H2       -17.4550    1.4100   15.8790 H    4009  WAT4009     0.2052
  12025  O         -3.7720   11.7990    2.9070 O.3  4010  WAT4010    -0.4105
  12026  H1        -4.0600   12.2610    3.6950 H    4010  WAT4010     0.2052
  12027  H2        -2.9760   11.3390    3.1750 H    4010  WAT4010     0.2052
  12028  O        -17.5880   16.1740   16.4940 O.3  4011  WAT4011    -0.4105
  12029  H1       -17.4780   15.2340   16.3540 H    4011  WAT4011     0.2052
  12030  H2       -18.2390   16.4400   15.8460 H    4011  WAT4011     0.2052
  12031  O         -9.5960   14.4460   17.8940 O.3  4012  WAT4012    -0.4105
  12032  H1        -9.9170   13.7270   18.4390 H    4012  WAT4012     0.2052
  12033  H2       -10.2700   15.1210   17.9680 H    4012  WAT4012     0.2052
  12034  O        -11.5550   15.2920    2.8370 O.3  4013  WAT4013    -0.4105
  12035  H1       -11.5640   16.0250    2.2220 H    4013  WAT4013     0.2052
  12036  H2       -12.4750   15.0450    2.9300 H    4013  WAT4013     0.2052
  12037  O        -15.9540   10.5130    3.5820 O.3  4014  WAT4014    -0.4105
  12038  H1       -16.5610   11.2530    3.5920 H    4014  WAT4014     0.2052
  12039  H2       -15.4790   10.6030    2.7560 H    4014  WAT4014     0.2052
  12040  O         -6.3810    4.6790   13.2580 O.3  4015  WAT4015    -0.4105
  12041  H1        -6.0130    3.8580   13.5860 H    4015  WAT4015     0.2052
  12042  H2        -7.2410    4.7390   13.6730 H    4015  WAT4015     0.2052
  12043  O         -3.0150    3.6340    4.0660 O.3  4016  WAT4016    -0.4105
  12044  H1        -3.6430    3.7390    3.3520 H    4016  WAT4016     0.2052
  12045  H2        -3.5090    3.8540    4.8560 H    4016  WAT4016     0.2052
  12046  O         -8.5690   15.3550    1.5000 O.3  4017  WAT4017    -0.4105
  12047  H1        -8.4680   15.1510    0.5700 H    4017  WAT4017     0.2052
  12048  H2        -9.4690   15.1010    1.7050 H    4017  WAT4017     0.2052
  12049  O        -11.0460    5.9130    5.4820 O.3  4018  WAT4018    -0.4105
  12050  H1       -11.7550    6.3810    5.9240 H    4018  WAT4018     0.2052
  12051  H2       -10.7620    5.2550    6.1170 H    4018  WAT4018     0.2052
  12052  O         -9.4210    7.3320   13.4820 O.3  4019  WAT4019    -0.4105
  12053  H1        -8.9220    7.8070   14.1470 H    4019  WAT4019     0.2052
  12054  H2        -9.2780    6.4090   13.6890 H    4019  WAT4019     0.2052
  12055  O         -7.0150    2.6380    6.9220 O.3  4020  WAT4020    -0.4105
  12056  H1        -7.1380    2.6560    5.9730 H    4020  WAT4020     0.2052
  12057  H2        -6.0660    2.6860    7.0420 H    4020  WAT4020     0.2052
  12058  O         -9.9270   17.8730    6.1950 O.3  4021  WAT4021    -0.4105
  12059  H1        -9.6730   17.8360    5.2730 H    4021  WAT4021     0.2052
  12060  H2       -10.8760   17.7470    6.1870 H    4021  WAT4021     0.2052
  12061  O        -12.8430    4.2210    2.8570 O.3  4022  WAT4022    -0.4105
  12062  H1       -11.9940    4.6580    2.7910 H    4022  WAT4022     0.2052
  12063  H2       -13.2100    4.5330    3.6850 H    4022  WAT4022     0.2052
  12064  O         -2.2140    3.5490   14.3240 O.3  4023  WAT4023    -0.4105
  12065  H1        -2.7170    4.2900   14.6640 H    4023  WAT4023     0.2052
  12066  H2        -1.3980    3.9380   14.0080 H    4023  WAT4023     0.2052
  12067  O         -3.9220    8.7930    7.7700 O.3  4024  WAT4024    -0.4105
  12068  H1        -4.8630    8.8080    7.9450 H    4024  WAT4024     0.2052
  12069  H2        -3.6070    8.0060    8.2170 H    4024  WAT4024     0.2052
  12070  O        -13.9440   10.4750    1.3310 O.3  4025  WAT4025    -0.4105
  12071  H1       -13.1770   10.3630    1.8930 H    4025  WAT4025     0.2052
  12072  H2       -13.8660    9.7780    0.6790 H    4025  WAT4025     0.2052
  12073  O        -15.2490    7.9070    2.0140 O.3  4026  WAT4026    -0.4105
  12074  H1       -15.1690    6.9600    2.1260 H    4026  WAT4026     0.2052
  12075  H2       -14.3570    8.2380    2.1200 H    4026  WAT4026     0.2052
  12076  O         -1.9190   15.9630    9.4460 O.3  4027  WAT4027    -0.4105
  12077  H1        -1.7950   16.7870    9.9180 H    4027  WAT4027     0.2052
  12078  H2        -1.0530   15.7530    9.0980 H    4027  WAT4027     0.2052
  12079  O        -14.4470   18.0570    9.1180 O.3  4028  WAT4028    -0.4105
  12080  H1       -13.7110   17.5080    9.3880 H    4028  WAT4028     0.2052
  12081  H2       -14.0630   18.9220    8.9780 H    4028  WAT4028     0.2052
  12082  O        -17.5630   14.1240    4.9920 O.3  4029  WAT4029    -0.4105
  12083  H1       -18.4890   14.3660    4.9820 H    4029  WAT4029     0.2052
  12084  H2       -17.0970   14.9510    4.8700 H    4029  WAT4029     0.2052
  12085  O        -15.4420   17.2410   18.3060 O.3  4030  WAT4030    -0.4105
  12086  H1       -14.6400   17.5620   18.7200 H    4030  WAT4030     0.2052
  12087  H2       -15.9560   16.8810   19.0280 H    4030  WAT4030     0.2052
  12088  O        -11.3370   17.2300    0.9400 O.3  4031  WAT4031    -0.4105
  12089  H1       -10.5440   17.5190    0.4880 H    4031  WAT4031     0.2052
  12090  H2       -11.8570   16.7990    0.2610 H    4031  WAT4031     0.2052
  12091  O         -6.6050   13.3490   18.2540 O.3  4032  WAT4032    -0.4105
  12092  H1        -7.2110   13.3720   17.5130 H    4032  WAT4032     0.2052
  12093  H2        -6.9100   12.6170   18.7900 H    4032  WAT4032     0.2052
  12094  O         -5.1750   17.0770   16.8650 O.3  4033  WAT4033    -0.4105
  12095  H1        -4.2230   16.9930   16.8150 H    4033  WAT4033     0.2052
  12096  H2        -5.3220   17.7410   17.5380 H    4033  WAT4033     0.2052
  12097  O         -2.2840   16.4570    2.3640 O.3  4034  WAT4034    -0.4105
  12098  H1        -2.5700   16.0430    1.5490 H    4034  WAT4034     0.2052
  12099  H2        -2.4820   17.3850    2.2440 H    4034  WAT4034     0.2052
  12100  O        -17.7220    9.7290   17.2500 O.3  4035  WAT4035    -0.4105
  12101  H1       -17.2180    9.1490   17.8210 H    4035  WAT4035     0.2052
  12102  H2       -18.4610   10.0130   17.7870 H    4035  WAT4035     0.2052
  12103  O        -10.8200   12.4500    0.8040 O.3  4036  WAT4036    -0.4105
  12104  H1       -10.9240   11.8350    1.5310 H    4036  WAT4036     0.2052
  12105  H2       -10.9870   11.9270    0.0210 H    4036  WAT4036     0.2052
  12106  O        -10.6680   11.1360   16.7830 O.3  4037  WAT4037    -0.4105
  12107  H1       -11.4340   11.7040   16.6990 H    4037  WAT4037     0.2052
  12108  H2       -10.4860   10.8430   15.8900 H    4037  WAT4037     0.2052
  12109  O         -7.5790   11.5120    1.4090 O.3  4038  WAT4038    -0.4105
  12110  H1        -8.1280   11.9590    2.0530 H    4038  WAT4038     0.2052
  12111  H2        -6.9570   11.0070    1.9320 H    4038  WAT4038     0.2052
  12112  O         -3.5260   12.8660   17.3410 O.3  4039  WAT4039    -0.4105
  12113  H1        -2.7850   13.2040   16.8380 H    4039  WAT4039     0.2052
  12114  H2        -4.2880   13.0350   16.7880 H    4039  WAT4039     0.2052
  12115  O        -15.6900    7.8720   18.1450 O.3  4040  WAT4040    -0.4105
  12116  H1       -15.6490    7.5730   19.0530 H    4040  WAT4040     0.2052
  12117  H2       -14.8350    8.2720   17.9860 H    4040  WAT4040     0.2052
  12118  O        -11.9120   10.4710    3.3050 O.3  4041  WAT4041    -0.4105
  12119  H1       -11.4900   10.3050    4.1480 H    4041  WAT4041     0.2052
  12120  H2       -11.7870    9.6610    2.8110 H    4041  WAT4041     0.2052
  12121  O        -13.7490    6.4510   16.1120 O.3  4042  WAT4042    -0.4105
  12122  H1       -14.2790    5.9600   15.4850 H    4042  WAT4042     0.2052
  12123  H2       -13.0800    6.8790   15.5780 H    4042  WAT4042     0.2052
  12124  O         -9.3990    9.4950    0.5530 O.3  4043  WAT4043    -0.4105
  12125  H1        -8.8780    8.7800    0.1870 H    4043  WAT4043     0.2052
  12126  H2        -8.7520   10.1330    0.8530 H    4043  WAT4043     0.2052
  12127  O         -4.8510   10.9180   15.8760 O.3  4044  WAT4044    -0.4105
  12128  H1        -4.4370   11.0720   16.7250 H    4044  WAT4044     0.2052
  12129  H2        -5.7860   11.0430   16.0390 H    4044  WAT4044     0.2052
  12130  O         -4.3790    8.2570   17.8800 O.3  4045  WAT4045    -0.4105
  12131  H1        -3.7970    7.5030   17.7920 H    4045  WAT4045     0.2052
  12132  H2        -4.2030    8.7880   17.1030 H    4045  WAT4045     0.2052
  12133  O        -13.2620    3.4170   16.1920 O.3  4046  WAT4046    -0.4105
  12134  H1       -13.3560    2.7990   15.4670 H    4046  WAT4046     0.2052
  12135  H2       -13.8420    4.1440   15.9650 H    4046  WAT4046     0.2052
  12136  O        -10.4960    1.9740   13.2250 O.3  4047  WAT4047    -0.4105
  12137  H1       -10.9440    1.9970   12.3790 H    4047  WAT4047     0.2052
  12138  H2       -11.1290    1.5760   13.8220 H    4047  WAT4047     0.2052
  12139  O        -10.0900   10.8700   13.8460 O.3  4048  WAT4048    -0.4105
  12140  H1        -9.6710   11.7130   13.6740 H    4048  WAT4048     0.2052
  12141  H2       -11.0090   11.0070   13.6170 H    4048  WAT4048     0.2052
  12142  O         -7.7530    8.6010   15.2300 O.3  4049  WAT4049    -0.4105
  12143  H1        -7.6340    8.0050   15.9690 H    4049  WAT4049     0.2052
  12144  H2        -6.8940    8.6380   14.8100 H    4049  WAT4049     0.2052
  12145  O         -5.4140    9.1550   13.8060 O.3  4050  WAT4050    -0.4105
  12146  H1        -5.9410    9.6790   13.2030 H    4050  WAT4050     0.2052
  12147  H2        -5.0710    9.7880   14.4370 H    4050  WAT4050     0.2052
  12148  O        -13.0160    6.5440    0.2510 O.3  4051  WAT4051    -0.4105
  12149  H1       -13.2170    5.6810    0.6120 H    4051  WAT4051     0.2052
  12150  H2       -13.1870    6.4580   -0.6870 H    4051  WAT4051     0.2052
  12151  O        -12.2390   17.1750   14.9620 O.3  4052  WAT4052    -0.4105
  12152  H1       -12.7770   17.9000   14.6430 H    4052  WAT4052     0.2052
  12153  H2       -11.9860   16.6980   14.1710 H    4052  WAT4052     0.2052
  12154  O        -10.9860    5.1430   16.4870 O.3  4053  WAT4053    -0.4105
  12155  H1       -10.3960    4.8350   17.1750 H    4053  WAT4053     0.2052
  12156  H2       -11.8040    4.6710   16.6430 H    4053  WAT4053     0.2052
  12157  O         -6.1670    4.7600   16.7210 O.3  4054  WAT4054    -0.4105
  12158  H1        -6.8560    4.0980   16.6560 H    4054  WAT4054     0.2052
  12159  H2        -5.4460    4.3140   17.1650 H    4054  WAT4054     0.2052
  12160  O         -5.5370    1.3550    2.7800 O.3  4055  WAT4055    -0.4105
  12161  H1        -5.2570    0.5120    3.1360 H    4055  WAT4055     0.2052
  12162  H2        -6.3100    1.5880    3.2940 H    4055  WAT4055     0.2052
  12163  O        -14.2180    3.6440    0.2390 O.3  4056  WAT4056    -0.4105
  12164  H1       -13.9150    3.6510   -0.6690 H    4056  WAT4056     0.2052
  12165  H2       -13.4780    3.2940    0.7360 H    4056  WAT4056     0.2052
  12166  O         -9.3830   18.4100   15.2200 O.3  4057  WAT4057    -0.4105
  12167  H1        -9.4570   19.3140   15.5280 H    4057  WAT4057     0.2052
  12168  H2       -10.2850   18.0910   15.1930 H    4057  WAT4057     0.2052
  12169  O        -10.9990    2.5880    1.2240 O.3  4058  WAT4058    -0.4105
  12170  H1       -11.3470    1.9100    0.6450 H    4058  WAT4058     0.2052
  12171  H2       -10.7980    2.1270    2.0390 H    4058  WAT4058     0.2052
  12172  O         -8.8340   17.5760    2.8430 O.3  4059  WAT4059    -0.4105
  12173  H1        -7.9390   17.9140    2.8650 H    4059  WAT4059     0.2052
  12174  H2        -8.8020   16.8540    2.2150 H    4059  WAT4059     0.2052
  12175  O        -15.1950   12.9490    1.0720 O.3  4060  WAT4060    -0.4105
  12176  H1       -14.7570   13.4920    1.7270 H    4060  WAT4060     0.2052
  12177  H2       -14.7100   12.1230    1.0810 H    4060  WAT4060     0.2052
  12178  O        -17.9800   15.7380    8.5240 O.3  4061  WAT4061    -0.4105
  12179  H1       -17.6500   14.8700    8.2920 H    4061  WAT4061     0.2052
  12180  H2       -17.5510   15.9430    9.3540 H    4061  WAT4061     0.2052
  12181  O        -13.3840   14.0680    6.1840 O.3  4062  WAT4062    -0.4105
  12182  H1       -13.6840   13.9450    7.0840 H    4062  WAT4062     0.2052
  12183  H2       -13.4900   13.2090    5.7760 H    4062  WAT4062     0.2052
  12184  O        -17.4910   16.6050   11.2620 O.3  4063  WAT4063    -0.4105
  12185  H1       -17.9280   16.7850   12.0940 H    4063  WAT4063     0.2052
  12186  H2       -16.9230   17.3620   11.1200 H    4063  WAT4063     0.2052
  12187  O         -1.8550   16.1060   15.5500 O.3  4064  WAT4064    -0.4105
  12188  H1        -2.4550   16.1660   14.8060 H    4064  WAT4064     0.2052
  12189  H2        -1.7250   15.1670   15.6790 H    4064  WAT4064     0.2052
  12190  O         -0.6150   13.8480    0.8870 O.3  4065  WAT4065    -0.4105
  12191  H1        -1.4450   13.9160    1.3570 H    4065  WAT4065     0.2052
  12192  H2        -0.4370   14.7390    0.5830 H    4065  WAT4065     0.2052
  12193  O         -1.1590   10.5930    3.3900 O.3  4066  WAT4066    -0.4105
  12194  H1        -0.3970   11.1630    3.4960 H    4066  WAT4066     0.2052
  12195  H2        -1.1440   10.0260    4.1610 H    4066  WAT4066     0.2052
  12196  O        -17.6590    9.1170    7.6210 O.3  4067  WAT4067    -0.4105
  12197  H1       -18.3140    8.8480    6.9770 H    4067  WAT4067     0.2052
  12198  H2       -16.8210    9.0070    7.1710 H    4067  WAT4067     0.2052
  12199  O         -0.1530   11.4480    8.2340 O.3  4068  WAT4068    -0.4105
  12200  H1         0.2180   10.6650    7.8280 H    4068  WAT4068     0.2052
  12201  H2         0.4870   12.1370    8.0560 H    4068  WAT4068     0.2052
  12202  O         -3.1700   12.8320   13.6470 O.3  4069  WAT4069    -0.4105
  12203  H1        -3.9840   13.2610   13.9100 H    4069  WAT4069     0.2052
  12204  H2        -2.7620   13.4430   13.0340 H    4069  WAT4069     0.2052
  12205  O         -1.1070   10.8860    0.5470 O.3  4070  WAT4070    -0.4105
  12206  H1        -0.8320   11.7940    0.4190 H    4070  WAT4070     0.2052
  12207  H2        -1.2960   10.8230    1.4830 H    4070  WAT4070     0.2052
  12208  O         -4.7090    3.9110    1.8430 O.3  4071  WAT4071    -0.4105
  12209  H1        -4.2910    3.7240    1.0020 H    4071  WAT4071     0.2052
  12210  H2        -5.0160    3.0590    2.1530 H    4071  WAT4071     0.2052
  12211  O         -1.2100    8.8230    5.5400 O.3  4072  WAT4072    -0.4105
  12212  H1        -1.5860    8.0560    5.1080 H    4072  WAT4072     0.2052
  12213  H2        -1.9400    9.2050    6.0280 H    4072  WAT4072     0.2052
  12214  O        -16.6210    9.5020   12.1610 O.3  4073  WAT4073    -0.4105
  12215  H1       -16.2540    9.4150   13.0410 H    4073  WAT4073     0.2052
  12216  H2       -17.1900    8.7390   12.0620 H    4073  WAT4073     0.2052
  12217  O         -1.8210    7.9700   15.1740 O.3  4074  WAT4074    -0.4105
  12218  H1        -2.0520    7.7420   14.2740 H    4074  WAT4074     0.2052
  12219  H2        -1.5600    8.8900   15.1290 H    4074  WAT4074     0.2052
  12220  O        -17.0690    6.4130   16.0670 O.3  4075  WAT4075    -0.4105
  12221  H1       -17.9640    6.3800   16.4060 H    4075  WAT4075     0.2052
  12222  H2       -16.5300    6.6120   16.8320 H    4075  WAT4075     0.2052
  12223  O         -3.3820    3.1960   17.9520 O.3  4076  WAT4076    -0.4105
  12224  H1        -2.5050    3.2040   18.3360 H    4076  WAT4076     0.2052
  12225  H2        -3.3700    2.4590   17.3410 H    4076  WAT4076     0.2052
  12226  O        -18.4450    6.3270    3.5630 O.3  4077  WAT4077    -0.4105
  12227  H1       -19.3480    6.5900    3.3890 H    4077  WAT4077     0.2052
  12228  H2       -17.9610    6.5980    2.7830 H    4077  WAT4077     0.2052
  12229  O         -1.9350    7.0490    8.8410 O.3  4078  WAT4078    -0.4105
  12230  H1        -1.4120    6.5550    8.2100 H    4078  WAT4078     0.2052
  12231  H2        -1.3490    7.1840    9.5860 H    4078  WAT4078     0.2052
  12232  O         -1.7560    7.1330   12.3630 O.3  4079  WAT4079    -0.4105
  12233  H1        -2.7060    7.0990   12.4770 H    4079  WAT4079     0.2052
  12234  H2        -1.5750    8.0430   12.1280 H    4079  WAT4079     0.2052
  12235  O        -15.9020    5.3830    1.4730 O.3  4080  WAT4080    -0.4105
  12236  H1       -15.1930    4.9610    0.9880 H    4080  WAT4080     0.2052
  12237  H2       -16.6180    5.4510    0.8410 H    4080  WAT4080     0.2052
  12238  O        -16.2550    1.4370    0.5130 O.3  4081  WAT4081    -0.4105
  12239  H1       -15.5320    1.9780    0.8310 H    4081  WAT4081     0.2052
  12240  H2       -15.9820    1.1630   -0.3630 H    4081  WAT4081     0.2052
  12241  O         -2.4450    6.3060    4.7800 O.3  4082  WAT4082    -0.4105
  12242  H1        -1.9490    6.0730    5.5650 H    4082  WAT4082     0.2052
  12243  H2        -2.6440    5.4670    4.3640 H    4082  WAT4082     0.2052
  12244  O        -16.5650    0.6880   10.4150 O.3  4083  WAT4083    -0.4105
  12245  H1       -15.9180    0.1370    9.9750 H    4083  WAT4083     0.2052
  12246  H2       -16.1450    0.9420   11.2370 H    4083  WAT4083     0.2052
  12247  O         -1.0170    4.9420    7.3140 O.3  4084  WAT4084    -0.4105
  12248  H1        -1.1270    4.7880    8.2520 H    4084  WAT4084     0.2052
  12249  H2        -0.2560    4.4140    7.0720 H    4084  WAT4084     0.2052
  12250  O         -2.6700    0.8820   13.7720 O.3  4085  WAT4085    -0.4105
  12251  H1        -2.0330    1.4950   14.1380 H    4085  WAT4085     0.2052
  12252  H2        -2.5230    0.9180   12.8270 H    4085  WAT4085     0.2052
  12253  O         -0.1280    2.7730    0.5550 O.3  4086  WAT4086    -0.4105
  12254  H1         0.7970    2.6410    0.3460 H    4086  WAT4086     0.2052
  12255  H2        -0.1500    2.8520    1.5080 H    4086  WAT4086     0.2052
  12256  O         -0.0540    3.5440    3.1800 O.3  4087  WAT4087    -0.4105
  12257  H1        -0.8490    3.4790    3.7100 H    4087  WAT4087     0.2052
  12258  H2         0.1510    4.4790    3.1690 H    4087  WAT4087     0.2052
  12259  O         -3.1120   17.5830    7.1740 O.3  4088  WAT4088    -0.4105
  12260  H1        -2.5160   17.2620    6.4980 H    4088  WAT4088     0.2052
  12261  H2        -2.8540   17.1110    7.9650 H    4088  WAT4088     0.2052
  12262  O        -16.8120    0.8430   13.1580 O.3  4089  WAT4089    -0.4105
  12263  H1       -17.1610    1.3000   13.9240 H    4089  WAT4089     0.2052
  12264  H2       -17.1430   -0.0510   13.2400 H    4089  WAT4089     0.2052
  12265  O        -15.2060   14.0150   17.3230 O.3  4090  WAT4090    -0.4105
  12266  H1       -15.2490   13.6440   18.2050 H    4090  WAT4090     0.2052
  12267  H2       -15.0750   14.9530   17.4630 H    4090  WAT4090     0.2052
  12268  O        -11.5050   15.5710   12.9240 O.3  4091  WAT4091    -0.4105
  12269  H1       -11.7460   15.8390   12.0370 H    4091  WAT4091     0.2052
  12270  H2       -10.5650   15.7420   12.9790 H    4091  WAT4091     0.2052
  12271  O         -9.3000    2.0340   16.6800 O.3  4092  WAT4092    -0.4105
  12272  H1        -9.3610    2.6270   17.4290 H    4092  WAT4092     0.2052
  12273  H2        -8.3600    1.9270   16.5350 H    4092  WAT4092     0.2052
  12274  O         -6.6620    1.6910   16.3190 O.3  4093  WAT4093    -0.4105
  12275  H1        -6.0480    2.0090   15.6570 H    4093  WAT4093     0.2052
  12276  H2        -6.1170    1.2060   16.9390 H    4093  WAT4093     0.2052
  12277  O         -0.2450   17.5910   13.7250 O.3  4094  WAT4094    -0.4105
  12278  H1        -0.7390   17.9870   13.0080 H    4094  WAT4094     0.2052
  12279  H2        -0.8530   16.9660   14.1190 H    4094  WAT4094     0.2052
  12280  O        -16.1400    0.3710   16.4330 O.3  4095  WAT4095    -0.4105
  12281  H1       -15.5920    0.1900   15.6700 H    4095  WAT4095     0.2052
  12282  H2       -16.0750   -0.4200   16.9690 H    4095  WAT4095     0.2052
  12283  O        -15.3670   16.9610   14.4430 O.3  4096  WAT4096    -0.4105
  12284  H1       -15.9610   16.8300   15.1820 H    4096  WAT4096     0.2052
  12285  H2       -15.3750   16.1250   13.9770 H    4096  WAT4096     0.2052
  12286  O         -5.9210    0.2550   12.6460 O.3  4097  WAT4097    -0.4105
  12287  H1        -6.7950    0.5880   12.4430 H    4097  WAT4097     0.2052
  12288  H2        -6.0300   -0.2180   13.4710 H    4097  WAT4097     0.2052
  12289  O         -5.0140    2.4620   14.0300 O.3  4098  WAT4098    -0.4105
  12290  H1        -5.3430    1.6470   13.6500 H    4098  WAT4098     0.2052
  12291  H2        -4.0660    2.4190   13.9070 H    4098  WAT4098     0.2052
  12292  O         -2.5610   18.2330   11.0040 O.3  4099  WAT4099    -0.4105
  12293  H1        -3.0200   18.9850   10.6300 H    4099  WAT4099     0.2052
  12294  H2        -3.1890   17.5140   10.9450 H    4099  WAT4099     0.2052
  12295  O        -15.7360   14.3270   13.3940 O.3  4100  WAT4100    -0.4105
  12296  H1       -16.4620   13.7080   13.3260 H    4100  WAT4100     0.2052
  12297  H2       -15.6750   14.7210   12.5240 H    4100  WAT4100     0.2052
  12298  O        -12.1310   16.5420   10.1790 O.3  4101  WAT4101    -0.4105
  12299  H1       -11.6150   15.9300    9.6540 H    4101  WAT4101     0.2052
  12300  H2       -11.4810   17.0450   10.6700 H    4101  WAT4101     0.2052
  12301  O         -9.3920   17.4330   11.0060 O.3  4102  WAT4102    -0.4105
  12302  H1        -9.1040   17.1780   10.1290 H    4102  WAT4102     0.2052
  12303  H2        -8.8790   16.8800   11.5960 H    4102  WAT4102     0.2052
  12304  O         -8.1740    1.1720   11.5850 O.3  4103  WAT4103    -0.4105
  12305  H1        -8.9570    1.6460   11.8650 H    4103  WAT4103     0.2052
  12306  H2        -8.4680    0.2670   11.4770 H    4103  WAT4103     0.2052
  12307  O         -3.6220    1.8740    9.6300 O.3  4104  WAT4104    -0.4105
  12308  H1        -3.1810    1.8180    8.7820 H    4104  WAT4104     0.2052
  12309  H2        -3.8910    2.7900    9.7010 H    4104  WAT4104     0.2052
  12310  O         -1.7580    1.5050    7.6410 O.3  4105  WAT4105    -0.4105
  12311  H1        -1.8190    0.5620    7.4940 H    4105  WAT4105     0.2052
  12312  H2        -0.9790    1.6130    8.1860 H    4105  WAT4105     0.2052
  12313  O        -17.4530   17.6450    6.6030 O.3  4106  WAT4106    -0.4105
  12314  H1       -17.6200   17.0120    7.3020 H    4106  WAT4106     0.2052
  12315  H2       -18.3190   17.8510    6.2530 H    4106  WAT4106     0.2052
  12316  O        -16.8300    1.4760    4.1070 O.3  4107  WAT4107    -0.4105
  12317  H1       -16.0720    1.5890    3.5330 H    4107  WAT4107     0.2052
  12318  H2       -17.2920    2.3130    4.0610 H    4107  WAT4107     0.2052
  12319  O        -10.2880    3.5900    7.0970 O.3  4108  WAT4108    -0.4105
  12320  H1       -11.1010    3.2160    6.7560 H    4108  WAT4108     0.2052
  12321  H2        -9.7840    2.8350    7.3990 H    4108  WAT4108     0.2052
  12322  O         -5.7860    0.2550    8.3350 O.3  4109  WAT4109    -0.4105
  12323  H1        -5.1830    0.8270    8.8100 H    4109  WAT4109     0.2052
  12324  H2        -6.5270    0.8180    8.1130 H    4109  WAT4109     0.2052
  12325  O         -2.6430    0.6570    3.6090 O.3  4110  WAT4110    -0.4105
  12326  H1        -2.4470    1.5550    3.8760 H    4110  WAT4110     0.2052
  12327  H2        -3.4300    0.4250    4.1020 H    4110  WAT4110     0.2052
  12328  O        -15.8460   16.3380    4.0480 O.3  4111  WAT4111    -0.4105
  12329  H1       -16.3720   16.7190    3.3450 H    4111  WAT4111     0.2052
  12330  H2       -15.9220   16.9630    4.7690 H    4111  WAT4111     0.2052
  12331  O        -14.4570    2.0030    2.6470 O.3  4112  WAT4112    -0.4105
  12332  H1       -13.9280    1.2160    2.5180 H    4112  WAT4112     0.2052
  12333  H2       -13.8250    2.6820    2.8800 H    4112  WAT4112     0.2052
  12334  O        -12.2640    1.7400    5.7010 O.3  4113  WAT4113    -0.4105
  12335  H1       -12.8930    1.0390    5.8680 H    4113  WAT4113     0.2052
  12336  H2       -12.8030    2.5010    5.4850 H    4113  WAT4113     0.2052
  12337  O         -9.3240   18.3540   18.3720 O.3  4114  WAT4114    -0.4105
  12338  H1        -8.3980   18.1190   18.4160 H    4114  WAT4114     0.2052
  12339  H2        -9.3390   19.1810   17.8910 H    4114  WAT4114     0.2052
  12340  O         -1.0900   17.8970    5.3700 O.3  4115  WAT4115    -0.4105
  12341  H1        -0.9150   17.2110    4.7260 H    4115  WAT4115     0.2052
  12342  H2        -1.7880   18.4210    4.9770 H    4115  WAT4115     0.2052
  12343  O        -12.1380    1.0190   18.1370 O.3  4116  WAT4116    -0.4105
  12344  H1       -12.4200    1.5220   17.3730 H    4116  WAT4116     0.2052
  12345  H2       -11.7560    0.2210   17.7710 H    4116  WAT4116     0.2052
  12346  O        -13.2470   18.2860    2.9230 O.3  4117  WAT4117    -0.4105
  12347  H1       -12.5150   18.0020    2.3760 H    4117  WAT4117     0.2052
  12348  H2       -12.9880   18.0480    3.8130 H    4117  WAT4117     0.2052
  12349  O        -14.0860   14.4030    2.9280 O.3  4118  WAT4118    -0.4105
  12350  H1       -14.7150   14.8710    3.4770 H    4118  WAT4118     0.2052
  12351  H2       -13.9710   13.5580    3.3630 H    4118  WAT4118     0.2052
  12352  O         -5.5360    0.4340   18.7150 O.3  4119  WAT4119    -0.4105
  12353  H1        -5.6500    0.7540   19.6100 H    4119  WAT4119     0.2052
  12354  H2        -4.7200    0.8350   18.4180 H    4119  WAT4119     0.2052
  12355  O         -2.7570   17.5810   18.1960 O.3  4120  WAT4120    -0.4105
  12356  H1        -1.9640   17.0860   17.9890 H    4120  WAT4120     0.2052
  12357  H2        -2.4630   18.2600   18.8040 H    4120  WAT4120     0.2052
  12358  O         -6.6310    8.4530  -10.9220 O.3  4121  WAT4121    -0.4105
  12359  H1        -6.7110    7.5390  -11.1930 H    4121  WAT4121     0.2052
  12360  H2        -7.0440    8.9500  -11.6280 H    4121  WAT4121     0.2052
  12361  O         -8.4990   10.2310   -9.0410 O.3  4122  WAT4122    -0.4105
  12362  H1        -9.2750    9.7510   -8.7510 H    4122  WAT4122     0.2052
  12363  H2        -7.8480    9.5520   -9.2150 H    4122  WAT4122     0.2052
  12364  O        -14.4820   10.5430   -8.1630 O.3  4123  WAT4123    -0.4105
  12365  H1       -15.3140   10.2880   -7.7640 H    4123  WAT4123     0.2052
  12366  H2       -13.8740   10.6140   -7.4280 H    4123  WAT4123     0.2052
  12367  O         -4.4780   14.6370  -10.2610 O.3  4124  WAT4124    -0.4105
  12368  H1        -4.9400   13.8660   -9.9320 H    4124  WAT4124     0.2052
  12369  H2        -3.6660   14.6640   -9.7560 H    4124  WAT4124     0.2052
  12370  O        -14.5020   14.5770   -7.9680 O.3  4125  WAT4125    -0.4105
  12371  H1       -14.1990   13.6870   -8.1470 H    4125  WAT4125     0.2052
  12372  H2       -13.7580   15.1340   -8.1950 H    4125  WAT4125     0.2052
  12373  O        -16.0730    5.5030  -14.3790 O.3  4126  WAT4126    -0.4105
  12374  H1       -16.9610    5.8450  -14.4810 H    4126  WAT4126     0.2052
  12375  H2       -15.7890    5.3030  -15.2710 H    4126  WAT4126     0.2052
  12376  O        -18.1100    8.1040   -8.4950 O.3  4127  WAT4127    -0.4105
  12377  H1       -17.5380    7.3360   -8.4950 H    4127  WAT4127     0.2052
  12378  H2       -18.1100    8.4030   -9.4050 H    4127  WAT4127     0.2052
  12379  O         -8.2520   16.9230  -10.6410 O.3  4128  WAT4128    -0.4105
  12380  H1        -8.8710   17.3790  -11.2110 H    4128  WAT4128     0.2052
  12381  H2        -7.3970   17.0780  -11.0420 H    4128  WAT4128     0.2052
  12382  O         -9.0580   12.9070   -9.0340 O.3  4129  WAT4129    -0.4105
  12383  H1        -9.1270   11.9660   -9.1950 H    4129  WAT4129     0.2052
  12384  H2        -8.2960   12.9970   -8.4620 H    4129  WAT4129     0.2052
  12385  O        -16.8670    3.5120   -6.7080 O.3  4130  WAT4130    -0.4105
  12386  H1       -17.0470    2.6150   -6.4280 H    4130  WAT4130     0.2052
  12387  H2       -17.2690    4.0600   -6.0340 H    4130  WAT4130     0.2052
  12388  O         -8.0270    5.7140   -8.8070 O.3  4131  WAT4131    -0.4105
  12389  H1        -7.6510    4.8410   -8.9200 H    4131  WAT4131     0.2052
  12390  H2        -8.1250    6.0500   -9.6980 H    4131  WAT4131     0.2052
  12391  O        -13.8970    4.0870  -13.3450 O.3  4132  WAT4132    -0.4105
  12392  H1       -13.7900    4.9870  -13.0380 H    4132  WAT4132     0.2052
  12393  H2       -14.8080    4.0380  -13.6360 H    4132  WAT4132     0.2052
  12394  O         -4.2450    3.2090  -11.8740 O.3  4133  WAT4133    -0.4105
  12395  H1        -3.4240    2.7190  -11.8320 H    4133  WAT4133     0.2052
  12396  H2        -4.2120    3.7990  -11.1210 H    4133  WAT4133     0.2052
  12397  O        -16.2490    6.0080   -8.1000 O.3  4134  WAT4134    -0.4105
  12398  H1       -15.5680    6.2720   -7.4810 H    4134  WAT4134     0.2052
  12399  H2       -16.5640    5.1690   -7.7660 H    4134  WAT4134     0.2052
  12400  O        -12.0560    7.0550   -9.0130 O.3  4135  WAT4135    -0.4105
  12401  H1       -11.5480    7.5530   -8.3720 H    4135  WAT4135     0.2052
  12402  H2       -11.5250    6.2790   -9.1890 H    4135  WAT4135     0.2052
  12403  O          0.0450    5.2260   -5.3100 O.3  4136  WAT4136    -0.4105
  12404  H1        -0.6600    5.6140   -5.8280 H    4136  WAT4136     0.2052
  12405  H2         0.3110    5.9210   -4.7080 H    4136  WAT4136     0.2052
  12406  O        -13.7730    1.6950   -4.7460 O.3  4137  WAT4137    -0.4105
  12407  H1       -13.7710    2.2120   -5.5520 H    4137  WAT4137     0.2052
  12408  H2       -14.6020    1.2180   -4.7690 H    4137  WAT4137     0.2052
  12409  O         -7.3850   11.8070  -13.2470 O.3  4138  WAT4138    -0.4105
  12410  H1        -8.0040   12.2720  -13.8110 H    4138  WAT4138     0.2052
  12411  H2        -6.8730   12.5000  -12.8310 H    4138  WAT4138     0.2052
  12412  O        -12.5220   11.3350   -6.5690 O.3  4139  WAT4139    -0.4105
  12413  H1       -12.8550   11.9610   -5.9270 H    4139  WAT4139     0.2052
  12414  H2       -12.3460   11.8610   -7.3490 H    4139  WAT4139     0.2052
  12415  O         -4.0090    5.1490   -9.1010 O.3  4140  WAT4140    -0.4105
  12416  H1        -4.7130    5.4380   -8.5210 H    4140  WAT4140     0.2052
  12417  H2        -3.6480    5.9590   -9.4620 H    4140  WAT4140     0.2052
  12418  O        -14.0910    3.4060   -6.7390 O.3  4141  WAT4141    -0.4105
  12419  H1       -13.7490    4.2500   -7.0340 H    4141  WAT4141     0.2052
  12420  H2       -15.0290    3.5540   -6.6230 H    4141  WAT4141     0.2052
  12421  O        -13.3100   13.3030   -4.7540 O.3  4142  WAT4142    -0.4105
  12422  H1       -12.6930   13.9780   -5.0360 H    4142  WAT4142     0.2052
  12423  H2       -14.1710   13.7110   -4.8450 H    4142  WAT4142     0.2052
  12424  O        -18.0170   12.4930  -15.8740 O.3  4143  WAT4143    -0.4105
  12425  H1       -18.3940   12.9810  -16.6050 H    4143  WAT4143     0.2052
  12426  H2       -17.7600   13.1650  -15.2430 H    4143  WAT4143     0.2052
  12427  O         -2.3930   14.7670   -6.8390 O.3  4144  WAT4144    -0.4105
  12428  H1        -3.0760   15.4360   -6.8470 H    4144  WAT4144     0.2052
  12429  H2        -1.8530   14.9650   -7.6040 H    4144  WAT4144     0.2052
  12430  O         -0.9400    4.5950   -8.7110 O.3  4145  WAT4145    -0.4105
  12431  H1        -1.8880    4.6280   -8.5790 H    4145  WAT4145     0.2052
  12432  H2        -0.6150    5.4080   -8.3260 H    4145  WAT4145     0.2052
  12433  O        -10.4080    0.8940  -10.4150 O.3  4146  WAT4146    -0.4105
  12434  H1       -10.1010    0.3390  -11.1310 H    4146  WAT4146     0.2052
  12435  H2       -11.3380    1.0290  -10.5980 H    4146  WAT4146     0.2052
  12436  O         -4.8570   16.6110   -8.1240 O.3  4147  WAT4147    -0.4105
  12437  H1        -4.8440   16.2070   -8.9920 H    4147  WAT4147     0.2052
  12438  H2        -5.4090   17.3860   -8.2280 H    4147  WAT4147     0.2052
  12439  O         -3.5620   13.3330  -13.0350 O.3  4148  WAT4148    -0.4105
  12440  H1        -3.6730   12.3900  -12.9100 H    4148  WAT4148     0.2052
  12441  H2        -3.5650   13.6940  -12.1490 H    4148  WAT4148     0.2052
  12442  O         -5.4580   11.5140   -6.7960 O.3  4149  WAT4149    -0.4105
  12443  H1        -5.0410   11.3000   -7.6310 H    4149  WAT4149     0.2052
  12444  H2        -4.7340   11.7710   -6.2250 H    4149  WAT4149     0.2052
  12445  O         -8.0200    8.9590  -13.6790 O.3  4150  WAT4150    -0.4105
  12446  H1        -8.9470    8.8930  -13.4500 H    4150  WAT4150     0.2052
  12447  H2        -7.8680    9.8970  -13.7930 H    4150  WAT4150     0.2052
  12448  O         -8.0330    5.2310  -16.6820 O.3  4151  WAT4151    -0.4105
  12449  H1        -8.9730    5.3920  -16.5970 H    4151  WAT4151     0.2052
  12450  H2        -7.7150    5.9490  -17.2290 H    4151  WAT4151     0.2052
  12451  O         -1.5120    9.9130   -6.7040 O.3  4152  WAT4152    -0.4105
  12452  H1        -2.3400    9.9820   -7.1790 H    4152  WAT4152     0.2052
  12453  H2        -0.9170   10.4980   -7.1730 H    4152  WAT4152     0.2052
  12454  O         -3.9900   10.5210  -13.1750 O.3  4153  WAT4153    -0.4105
  12455  H1        -4.6090   10.1830  -13.8230 H    4153  WAT4153     0.2052
  12456  H2        -4.0080    9.8770  -12.4670 H    4153  WAT4153     0.2052
  12457  O         -4.5480    6.7000   -5.7590 O.3  4154  WAT4154    -0.4105
  12458  H1        -4.9610    7.5250   -5.5050 H    4154  WAT4154     0.2052
  12459  H2        -5.2800    6.1140   -5.9510 H    4154  WAT4154     0.2052
  12460  O        -12.4140    9.4860  -10.8970 O.3  4155  WAT4155    -0.4105
  12461  H1       -12.8190    8.7730  -11.3920 H    4155  WAT4155     0.2052
  12462  H2       -12.3280    9.1410  -10.0080 H    4155  WAT4155     0.2052
  12463  O        -11.9460   13.1720   -8.7330 O.3  4156  WAT4156    -0.4105
  12464  H1       -12.2430   12.5670   -9.4120 H    4156  WAT4156     0.2052
  12465  H2       -10.9960   13.2100   -8.8440 H    4156  WAT4156     0.2052
  12466  O        -13.7020    6.2600   -7.1170 O.3  4157  WAT4157    -0.4105
  12467  H1       -13.1500    6.3690   -7.8920 H    4157  WAT4157     0.2052
  12468  H2       -13.1870    6.6340   -6.4020 H    4157  WAT4157     0.2052
  12469  O         -3.8580   16.7460   -5.0710 O.3  4158  WAT4158    -0.4105
  12470  H1        -4.3350   17.5530   -5.2630 H    4158  WAT4158     0.2052
  12471  H2        -4.5420   16.0930   -4.9180 H    4158  WAT4158     0.2052
  12472  O        -12.8540   12.9110   -2.0820 O.3  4159  WAT4159    -0.4105
  12473  H1       -13.7520   13.1350   -1.8350 H    4159  WAT4159     0.2052
  12474  H2       -12.8290   13.0340   -3.0310 H    4159  WAT4159     0.2052
  12475  O         -5.8140    9.7600  -16.1680 O.3  4160  WAT4160    -0.4105
  12476  H1        -5.3750    8.9220  -16.3140 H    4160  WAT4160     0.2052
  12477  H2        -5.1010   10.3930  -16.0820 H    4160  WAT4160     0.2052
  12478  O        -14.0270    9.7820   -3.5070 O.3  4161  WAT4161    -0.4105
  12479  H1       -14.1670   10.6540   -3.1380 H    4161  WAT4161     0.2052
  12480  H2       -14.9090    9.4390   -3.6520 H    4161  WAT4161     0.2052
  12481  O         -7.7040   14.6990  -12.2000 O.3  4162  WAT4162    -0.4105
  12482  H1        -7.2650   15.4420  -12.6140 H    4162  WAT4162     0.2052
  12483  H2        -7.7660   14.9420  -11.2760 H    4162  WAT4162     0.2052
  12484  O        -12.2290   15.7240   -1.2980 O.3  4163  WAT4163    -0.4105
  12485  H1       -12.2580   16.1280   -2.1650 H    4163  WAT4163     0.2052
  12486  H2       -12.3930   14.7950   -1.4610 H    4163  WAT4163     0.2052
  12487  O         -2.2320    1.0140  -17.8540 O.3  4164  WAT4164    -0.4105
  12488  H1        -2.5450    1.1070  -16.9540 H    4164  WAT4164     0.2052
  12489  H2        -1.4710    1.5920  -17.9040 H    4164  WAT4164     0.2052
  12490  O        -15.7140    8.3800  -13.3960 O.3  4165  WAT4165    -0.4105
  12491  H1       -15.8340    9.1060  -14.0080 H    4165  WAT4165     0.2052
  12492  H2       -16.0240    7.6100  -13.8740 H    4165  WAT4165     0.2052
  12493  O         -0.2780   16.5070   -0.0020 O.3  4166  WAT4166    -0.4105
  12494  H1         0.1980   16.9850    0.6770 H    4166  WAT4166     0.2052
  12495  H2         0.3430   16.4380   -0.7270 H    4166  WAT4166     0.2052
  12496  O        -18.0750   11.5520   -7.5890 O.3  4167  WAT4167    -0.4105
  12497  H1       -17.9970   11.6860   -8.5340 H    4167  WAT4167     0.2052
  12498  H2       -17.4610   10.8430   -7.3970 H    4167  WAT4167     0.2052
  12499  O        -16.8310   13.2520  -11.1790 O.3  4168  WAT4168    -0.4105
  12500  H1       -17.2380   13.3930  -12.0330 H    4168  WAT4168     0.2052
  12501  H2       -15.9390   12.9680  -11.3820 H    4168  WAT4168     0.2052
  12502  O         -0.8750   13.6980   -2.8420 O.3  4169  WAT4169    -0.4105
  12503  H1        -0.7480   13.4590   -3.7600 H    4169  WAT4169     0.2052
  12504  H2        -0.8320   12.8660   -2.3690 H    4169  WAT4169     0.2052
  12505  O         -7.0130   17.4010   -4.2720 O.3  4170  WAT4170    -0.4105
  12506  H1        -6.4980   17.3120   -3.4700 H    4170  WAT4170     0.2052
  12507  H2        -7.8560   17.7470   -3.9790 H    4170  WAT4170     0.2052
  12508  O         -5.0370   17.6860  -14.8440 O.3  4171  WAT4171    -0.4105
  12509  H1        -5.1970   17.3970  -13.9460 H    4171  WAT4171     0.2052
  12510  H2        -5.2030   16.9100  -15.3790 H    4171  WAT4171     0.2052
  12511  O        -12.5590   17.4660  -13.0670 O.3  4172  WAT4172    -0.4105
  12512  H1       -12.7340   16.5500  -13.2800 H    4172  WAT4172     0.2052
  12513  H2       -13.4130   17.8250  -12.8270 H    4172  WAT4172     0.2052
  12514  O         -5.3350   15.1950  -16.2840 O.3  4173  WAT4173    -0.4105
  12515  H1        -6.0280   15.1930  -16.9440 H    4173  WAT4173     0.2052
  12516  H2        -4.5930   14.7710  -16.7140 H    4173  WAT4173     0.2052
  12517  O         -5.7700   16.8210  -12.2090 O.3  4174  WAT4174    -0.4105
  12518  H1        -5.3140   16.0400  -11.8950 H    4174  WAT4174     0.2052
  12519  H2        -5.4310   17.5320  -11.6650 H    4174  WAT4174     0.2052
  12520  O         -1.0220    5.7510   -1.8770 O.3  4175  WAT4175    -0.4105
  12521  H1        -1.6380    6.2590   -2.4050 H    4175  WAT4175     0.2052
  12522  H2        -1.3420    4.8510   -1.9340 H    4175  WAT4175     0.2052
  12523  O        -18.0200   12.5930   -5.0500 O.3  4176  WAT4176    -0.4105
  12524  H1       -17.8560   12.1240   -5.8680 H    4176  WAT4176     0.2052
  12525  H2       -17.5540   12.0850   -4.3850 H    4176  WAT4176     0.2052
  12526  O        -13.2480    1.7240  -10.0140 O.3  4177  WAT4177    -0.4105
  12527  H1       -13.6910    2.5050  -10.3450 H    4177  WAT4177     0.2052
  12528  H2       -12.6890    2.0470   -9.3070 H    4177  WAT4177     0.2052
  12529  O         -8.9610    4.5900   -4.4100 O.3  4178  WAT4178    -0.4105
  12530  H1        -9.4230    4.7990   -3.5980 H    4178  WAT4178     0.2052
  12531  H2        -9.3630    3.7760   -4.7130 H    4178  WAT4178     0.2052
  12532  O         -3.9600    5.8110   -3.2810 O.3  4179  WAT4179    -0.4105
  12533  H1        -4.8110    5.5120   -2.9600 H    4179  WAT4179     0.2052
  12534  H2        -4.1200    6.0560   -4.1920 H    4179  WAT4179     0.2052
  12535  O         -6.8650    7.3120   -1.1810 O.3  4180  WAT4180    -0.4105
  12536  H1        -6.5400    6.4780   -1.5210 H    4180  WAT4180     0.2052
  12537  H2        -6.0770    7.8340   -1.0330 H    4180  WAT4180     0.2052
  12538  O        -10.1320    1.3450  -15.1330 O.3  4181  WAT4181    -0.4105
  12539  H1       -10.7560    1.3410  -14.4080 H    4181  WAT4181     0.2052
  12540  H2       -10.2190    0.4780  -15.5300 H    4181  WAT4181     0.2052
  12541  O        -11.2100    2.2680   -8.1550 O.3  4182  WAT4182    -0.4105
  12542  H1       -10.9130    3.1750   -8.2360 H    4182  WAT4182     0.2052
  12543  H2       -10.6620    1.7800   -8.7690 H    4182  WAT4182     0.2052
  12544  O        -13.4560    6.8470  -12.2860 O.3  4183  WAT4183    -0.4105
  12545  H1       -13.6820    6.6310  -11.3810 H    4183  WAT4183     0.2052
  12546  H2       -14.2370    7.2800  -12.6310 H    4183  WAT4183     0.2052
  12547  O         -6.2260    6.8530  -13.6870 O.3  4184  WAT4184    -0.4105
  12548  H1        -6.8260    7.5770  -13.8700 H    4184  WAT4184     0.2052
  12549  H2        -5.6790    6.7910  -14.4690 H    4184  WAT4184     0.2052
  12550  O        -11.0160    7.7460   -1.6200 O.3  4185  WAT4185    -0.4105
  12551  H1       -11.1120    6.8050   -1.7700 H    4185  WAT4185     0.2052
  12552  H2       -10.1730    7.9670   -2.0150 H    4185  WAT4185     0.2052
  12553  O         -7.6200    5.4900  -11.6560 O.3  4186  WAT4186    -0.4105
  12554  H1        -7.2270    5.8070  -12.4700 H    4186  WAT4186     0.2052
  12555  H2        -7.2580    4.6110  -11.5420 H    4186  WAT4186     0.2052
  12556  O        -15.8850    4.1570   -3.4660 O.3  4187  WAT4187    -0.4105
  12557  H1       -16.2790    5.0040   -3.2590 H    4187  WAT4187     0.2052
  12558  H2       -16.5730    3.5200   -3.2760 H    4187  WAT4187     0.2052
  12559  O         -9.3110    4.2400   -0.3970 O.3  4188  WAT4188    -0.4105
  12560  H1       -10.0010    4.0480    0.2380 H    4188  WAT4188     0.2052
  12561  H2        -8.5680    4.5240    0.1360 H    4188  WAT4188     0.2052
  12562  O        -18.5840    2.0800   -9.4330 O.3  4189  WAT4189    -0.4105
  12563  H1       -18.8720    2.6500   -8.7210 H    4189  WAT4189     0.2052
  12564  H2       -17.8390    1.6000   -9.0700 H    4189  WAT4189     0.2052
  12565  O        -18.3970    6.0220  -18.2230 O.3  4190  WAT4190    -0.4105
  12566  H1       -18.4790    6.9650  -18.0820 H    4190  WAT4190     0.2052
  12567  H2       -18.7480    5.8790  -19.1020 H    4190  WAT4190     0.2052
  12568  O         -7.0340    8.0800   -7.5610 O.3  4191  WAT4191    -0.4105
  12569  H1        -7.7660    8.5890   -7.2120 H    4191  WAT4191     0.2052
  12570  H2        -7.4320    7.2630   -7.8620 H    4191  WAT4191     0.2052
  12571  O        -10.5970    4.7560   -9.1560 O.3  4192  WAT4192    -0.4105
  12572  H1       -10.5930    4.3150  -10.0060 H    4192  WAT4192     0.2052
  12573  H2        -9.7020    5.0770   -9.0490 H    4192  WAT4192     0.2052
  12574  O        -14.7460    4.6380  -10.1970 O.3  4193  WAT4193    -0.4105
  12575  H1       -15.0860    5.1160   -9.4400 H    4193  WAT4193     0.2052
  12576  H2       -15.5090    4.1850  -10.5570 H    4193  WAT4193     0.2052
  12577  O        -10.5350    5.7570  -16.1650 O.3  4194  WAT4194    -0.4105
  12578  H1       -10.4130    5.7160  -15.2170 H    4194  WAT4194     0.2052
  12579  H2       -10.9200    6.6190  -16.3210 H    4194  WAT4194     0.2052
  12580  O         -6.5720    3.5340   -8.1490 O.3  4195  WAT4195    -0.4105
  12581  H1        -6.5550    3.9840   -7.3050 H    4195  WAT4195     0.2052
  12582  H2        -6.8200    2.6340   -7.9360 H    4195  WAT4195     0.2052
  12583  O        -11.5230    8.0670  -16.7670 O.3  4196  WAT4196    -0.4105
  12584  H1       -12.0910    7.6190  -17.3930 H    4196  WAT4196     0.2052
  12585  H2       -10.8140    8.4260  -17.3010 H    4196  WAT4196     0.2052
  12586  O         -3.1450    0.9470   -2.3100 O.3  4197  WAT4197    -0.4105
  12587  H1        -2.8200    0.2160   -1.7850 H    4197  WAT4197     0.2052
  12588  H2        -3.1090    0.6280   -3.2120 H    4197  WAT4197     0.2052
  12589  O        -16.4460   11.9680   -2.8900 O.3  4198  WAT4198    -0.4105
  12590  H1       -16.8300   11.3280   -2.2920 H    4198  WAT4198     0.2052
  12591  H2       -16.1340   12.6720   -2.3210 H    4198  WAT4198     0.2052
  12592  O        -10.2960    8.8160   -7.4100 O.3  4199  WAT4199    -0.4105
  12593  H1        -9.9290    8.3420   -6.6630 H    4199  WAT4199     0.2052
  12594  H2       -10.4850    9.6900   -7.0690 H    4199  WAT4199     0.2052
  12595  O        -17.4320    3.5600  -11.2800 O.3  4200  WAT4200    -0.4105
  12596  H1       -17.7170    3.1960  -10.4420 H    4200  WAT4200     0.2052
  12597  H2       -17.4940    2.8280  -11.8940 H    4200  WAT4200     0.2052
  12598  O        -12.5060    7.8570   -5.0910 O.3  4201  WAT4201    -0.4105
  12599  H1       -12.8100    8.7360   -4.8660 H    4201  WAT4201     0.2052
  12600  H2       -11.5510    7.9170   -5.0550 H    4201  WAT4201     0.2052
  12601  O        -13.9780   12.0630  -14.4940 O.3  4202  WAT4202    -0.4105
  12602  H1       -14.7520   11.5230  -14.6550 H    4202  WAT4202     0.2052
  12603  H2       -13.2480   11.5430  -14.8330 H    4202  WAT4202     0.2052
  12604  O         -3.2190   11.0590   -8.7020 O.3  4203  WAT4203    -0.4105
  12605  H1        -2.4990   11.5550   -9.0920 H    4203  WAT4203     0.2052
  12606  H2        -3.4210   10.3810   -9.3460 H    4203  WAT4203     0.2052
  12607  O         -7.7580    2.4530  -14.5590 O.3  4204  WAT4204    -0.4105
  12608  H1        -8.5720    1.9540  -14.6340 H    4204  WAT4204     0.2052
  12609  H2        -7.9520    3.2930  -14.9750 H    4204  WAT4204     0.2052
  12610  O         -7.8370   11.1300   -2.8150 O.3  4205  WAT4205    -0.4105
  12611  H1        -7.9030   10.2100   -3.0690 H    4205  WAT4205     0.2052
  12612  H2        -8.4670   11.2280   -2.1000 H    4205  WAT4205     0.2052
  12613  O         -5.0430    6.8250  -16.2630 O.3  4206  WAT4206    -0.4105
  12614  H1        -4.1550    7.1370  -16.4380 H    4206  WAT4206     0.2052
  12615  H2        -5.0730    5.9520  -16.6550 H    4206  WAT4206     0.2052
  12616  O        -13.9340   11.7310  -10.8570 O.3  4207  WAT4207    -0.4105
  12617  H1       -13.4160   10.9280  -10.9110 H    4207  WAT4207     0.2052
  12618  H2       -14.3860   11.6690  -10.0150 H    4207  WAT4207     0.2052
  12619  O         -9.0470   12.9970  -15.5840 O.3  4208  WAT4208    -0.4105
  12620  H1        -8.7060   13.7420  -16.0790 H    4208  WAT4208     0.2052
  12621  H2        -9.8760   13.3110  -15.2210 H    4208  WAT4208     0.2052
  12622  O        -16.4500    8.6970   -3.9440 O.3  4209  WAT4209    -0.4105
  12623  H1       -16.8080    9.3620   -3.3570 H    4209  WAT4209     0.2052
  12624  H2       -16.7440    7.8650   -3.5730 H    4209  WAT4209     0.2052
  12625  O        -13.2480    9.1550   -1.0600 O.3  4210  WAT4210    -0.4105
  12626  H1       -13.5480    9.3010   -1.9570 H    4210  WAT4210     0.2052
  12627  H2       -12.4770    8.5960   -1.1530 H    4210  WAT4210     0.2052
  12628  O         -7.9050   13.9520   -3.0650 O.3  4211  WAT4211    -0.4105
  12629  H1        -7.8910   13.0200   -3.2830 H    4211  WAT4211     0.2052
  12630  H2        -8.6130   14.0380   -2.4260 H    4211  WAT4211     0.2052
  12631  O         -2.7720    8.1360  -16.7950 O.3  4212  WAT4212    -0.4105
  12632  H1        -2.8550    8.5680  -17.6450 H    4212  WAT4212     0.2052
  12633  H2        -2.0520    8.5960  -16.3620 H    4212  WAT4212     0.2052
  12634  O         -1.6940   10.5930   -3.7180 O.3  4213  WAT4213    -0.4105
  12635  H1        -2.4200   11.1860   -3.9150 H    4213  WAT4213     0.2052
  12636  H2        -1.1670   10.5850   -4.5160 H    4213  WAT4213     0.2052
  12637  O         -1.7430   14.9900  -14.0660 O.3  4214  WAT4214    -0.4105
  12638  H1        -2.3850   14.3360  -13.7920 H    4214  WAT4214     0.2052
  12639  H2        -2.1300   15.3960  -14.8420 H    4214  WAT4214     0.2052
  12640  O         -6.1640   12.3190  -10.2190 O.3  4215  WAT4215    -0.4105
  12641  H1        -5.8120   11.7220  -10.8790 H    4215  WAT4215     0.2052
  12642  H2        -7.0480   11.9930  -10.0480 H    4215  WAT4215     0.2052
  12643  O        -10.0780   13.0790  -12.8120 O.3  4216  WAT4216    -0.4105
  12644  H1        -9.3910   13.6260  -12.4310 H    4216  WAT4216     0.2052
  12645  H2       -10.8650   13.6230  -12.7770 H    4216  WAT4216     0.2052
  12646  O        -17.9390    8.6960  -17.3210 O.3  4217  WAT4217    -0.4105
  12647  H1       -17.0690    8.9790  -17.0370 H    4217  WAT4217     0.2052
  12648  H2       -18.4300    9.5100  -17.4360 H    4217  WAT4217     0.2052
  12649  O        -10.7750   10.0830  -13.2000 O.3  4218  WAT4218    -0.4105
  12650  H1       -10.3190   10.8940  -12.9740 H    4218  WAT4218     0.2052
  12651  H2       -11.1270    9.7660  -12.3680 H    4218  WAT4218     0.2052
  12652  O         -8.4720   15.5940   -5.9700 O.3  4219  WAT4219    -0.4105
  12653  H1        -7.8280   15.8000   -5.2930 H    4219  WAT4219     0.2052
  12654  H2        -8.1090   14.8330   -6.4230 H    4219  WAT4219     0.2052
  12655  O        -14.8740    0.4270  -12.7270 O.3  4220  WAT4220    -0.4105
  12656  H1       -15.0030    0.4190  -11.7790 H    4220  WAT4220     0.2052
  12657  H2       -15.6980    0.7650  -13.0780 H    4220  WAT4220     0.2052
  12658  O         -7.1990   13.5970   -7.2530 O.3  4221  WAT4221    -0.4105
  12659  H1        -6.5570   12.8970   -7.1400 H    4221  WAT4221     0.2052
  12660  H2        -6.6740   14.3770   -7.4330 H    4221  WAT4221     0.2052
  12661  O         -3.3530   13.8820  -17.5290 O.3  4222  WAT4222    -0.4105
  12662  H1        -3.5800   13.1650  -16.9360 H    4222  WAT4222     0.2052
  12663  H2        -3.7440   13.6330  -18.3670 H    4222  WAT4222     0.2052
  12664  O         -5.4250   14.3970   -4.0490 O.3  4223  WAT4223    -0.4105
  12665  H1        -5.0890   14.9830   -3.3710 H    4223  WAT4223     0.2052
  12666  H2        -6.3450   14.2660   -3.8190 H    4223  WAT4223     0.2052
  12667  O        -17.5720   17.9090  -16.7540 O.3  4224  WAT4224    -0.4105
  12668  H1       -17.2120   18.5080  -17.4090 H    4224  WAT4224     0.2052
  12669  H2       -17.7120   18.4550  -15.9810 H    4224  WAT4224     0.2052
  12670  O        -17.8750    2.1860   -3.2670 O.3  4225  WAT4225    -0.4105
  12671  H1       -18.5890    2.3860   -2.6620 H    4225  WAT4225     0.2052
  12672  H2       -17.4550    1.4100   -2.8950 H    4225  WAT4225     0.2052
  12673  O         -3.7720   11.7990  -15.8670 O.3  4226  WAT4226    -0.4105
  12674  H1        -4.0600   12.2610  -15.0800 H    4226  WAT4226     0.2052
  12675  H2        -2.9760   11.3390  -15.5990 H    4226  WAT4226     0.2052
  12676  O        -17.5880   16.1740   -2.2800 O.3  4227  WAT4227    -0.4105
  12677  H1       -17.4780   15.2340   -2.4210 H    4227  WAT4227     0.2052
  12678  H2       -18.2390   16.4400   -2.9290 H    4227  WAT4227     0.2052
  12679  O         -9.5960   14.4460   -0.8800 O.3  4228  WAT4228    -0.4105
  12680  H1        -9.9170   13.7270   -0.3360 H    4228  WAT4228     0.2052
  12681  H2       -10.2700   15.1210   -0.8070 H    4228  WAT4228     0.2052
  12682  O        -11.5550   15.2920  -15.9370 O.3  4229  WAT4229    -0.4105
  12683  H1       -11.5640   16.0250  -16.5530 H    4229  WAT4229     0.2052
  12684  H2       -12.4750   15.0450  -15.8440 H    4229  WAT4229     0.2052
  12685  O        -15.9540   10.5130  -15.1920 O.3  4230  WAT4230    -0.4105
  12686  H1       -16.5610   11.2530  -15.1830 H    4230  WAT4230     0.2052
  12687  H2       -15.4790   10.6030  -16.0190 H    4230  WAT4230     0.2052
  12688  O         -6.3810    4.6790   -5.5170 O.3  4231  WAT4231    -0.4105
  12689  H1        -6.0130    3.8580   -5.1890 H    4231  WAT4231     0.2052
  12690  H2        -7.2410    4.7390   -5.1010 H    4231  WAT4231     0.2052
  12691  O         -3.0150    3.6340  -14.7080 O.3  4232  WAT4232    -0.4105
  12692  H1        -3.6430    3.7390  -15.4220 H    4232  WAT4232     0.2052
  12693  H2        -3.5090    3.8540  -13.9180 H    4232  WAT4232     0.2052
  12694  O         -8.5690   15.3550  -17.2740 O.3  4233  WAT4233    -0.4105
  12695  H1        -8.4680   15.1510  -18.2040 H    4233  WAT4233     0.2052
  12696  H2        -9.4690   15.1010  -17.0700 H    4233  WAT4233     0.2052
  12697  O        -11.0460    5.9130  -13.2920 O.3  4234  WAT4234    -0.4105
  12698  H1       -11.7550    6.3810  -12.8510 H    4234  WAT4234     0.2052
  12699  H2       -10.7620    5.2550  -12.6580 H    4234  WAT4234     0.2052
  12700  O         -9.4210    7.3320   -5.2930 O.3  4235  WAT4235    -0.4105
  12701  H1        -8.9220    7.8070   -4.6280 H    4235  WAT4235     0.2052
  12702  H2        -9.2780    6.4090   -5.0860 H    4235  WAT4235     0.2052
  12703  O         -7.0150    2.6380  -11.8530 O.3  4236  WAT4236    -0.4105
  12704  H1        -7.1380    2.6560  -12.8020 H    4236  WAT4236     0.2052
  12705  H2        -6.0660    2.6860  -11.7330 H    4236  WAT4236     0.2052
  12706  O         -9.9270   17.8730  -12.5800 O.3  4237  WAT4237    -0.4105
  12707  H1        -9.6730   17.8360  -13.5020 H    4237  WAT4237     0.2052
  12708  H2       -10.8760   17.7470  -12.5870 H    4237  WAT4237     0.2052
  12709  O        -12.8430    4.2210  -15.9170 O.3  4238  WAT4238    -0.4105
  12710  H1       -11.9940    4.6580  -15.9830 H    4238  WAT4238     0.2052
  12711  H2       -13.2100    4.5330  -15.0900 H    4238  WAT4238     0.2052
  12712  O         -2.2140    3.5490   -4.4500 O.3  4239  WAT4239    -0.4105
  12713  H1        -2.7170    4.2900   -4.1110 H    4239  WAT4239     0.2052
  12714  H2        -1.3980    3.9380   -4.7660 H    4239  WAT4239     0.2052
  12715  O         -3.9220    8.7930  -11.0040 O.3  4240  WAT4240    -0.4105
  12716  H1        -4.8630    8.8080  -10.8290 H    4240  WAT4240     0.2052
  12717  H2        -3.6070    8.0060  -10.5580 H    4240  WAT4240     0.2052
  12718  O        -13.9440   10.4750  -17.4430 O.3  4241  WAT4241    -0.4105
  12719  H1       -13.1770   10.3630  -16.8810 H    4241  WAT4241     0.2052
  12720  H2       -13.8660    9.7780  -18.0960 H    4241  WAT4241     0.2052
  12721  O        -15.2490    7.9070  -16.7600 O.3  4242  WAT4242    -0.4105
  12722  H1       -15.1690    6.9600  -16.6480 H    4242  WAT4242     0.2052
  12723  H2       -14.3570    8.2380  -16.6540 H    4242  WAT4242     0.2052
  12724  O         -1.9190   15.9630   -9.3280 O.3  4243  WAT4243    -0.4105
  12725  H1        -1.7950   16.7870   -8.8560 H    4243  WAT4243     0.2052
  12726  H2        -1.0530   15.7530   -9.6760 H    4243  WAT4243     0.2052
  12727  O        -14.4470   18.0570   -9.6570 O.3  4244  WAT4244    -0.4105
  12728  H1       -13.7110   17.5080   -9.3860 H    4244  WAT4244     0.2052
  12729  H2       -14.0630   18.9220   -9.7960 H    4244  WAT4244     0.2052
  12730  O        -17.5630   14.1240  -13.7830 O.3  4245  WAT4245    -0.4105
  12731  H1       -18.4890   14.3660  -13.7920 H    4245  WAT4245     0.2052
  12732  H2       -17.0970   14.9510  -13.9040 H    4245  WAT4245     0.2052
  12733  O        -15.4420   17.2410   -0.4680 O.3  4246  WAT4246    -0.4105
  12734  H1       -14.6400   17.5620   -0.0550 H    4246  WAT4246     0.2052
  12735  H2       -15.9560   16.8810    0.2540 H    4246  WAT4246     0.2052
  12736  O        -11.3370   17.2300  -17.8340 O.3  4247  WAT4247    -0.4105
  12737  H1       -10.5440   17.5190  -18.2860 H    4247  WAT4247     0.2052
  12738  H2       -11.8570   16.7990  -18.5130 H    4247  WAT4247     0.2052
  12739  O         -6.6050   13.3490   -0.5210 O.3  4248  WAT4248    -0.4105
  12740  H1        -7.2110   13.3720   -1.2610 H    4248  WAT4248     0.2052
  12741  H2        -6.9100   12.6170    0.0160 H    4248  WAT4248     0.2052
  12742  O         -5.1750   17.0770   -1.9100 O.3  4249  WAT4249    -0.4105
  12743  H1        -4.2230   16.9930   -1.9600 H    4249  WAT4249     0.2052
  12744  H2        -5.3220   17.7410   -1.2360 H    4249  WAT4249     0.2052
  12745  O         -2.2840   16.4570  -16.4100 O.3  4250  WAT4250    -0.4105
  12746  H1        -2.5700   16.0430  -17.2250 H    4250  WAT4250     0.2052
  12747  H2        -2.4820   17.3850  -16.5300 H    4250  WAT4250     0.2052
  12748  O        -17.7220    9.7290   -1.5250 O.3  4251  WAT4251    -0.4105
  12749  H1       -17.2180    9.1490   -0.9530 H    4251  WAT4251     0.2052
  12750  H2       -18.4610   10.0130   -0.9870 H    4251  WAT4251     0.2052
  12751  O        -10.8200   12.4500  -17.9700 O.3  4252  WAT4252    -0.4105
  12752  H1       -10.9240   11.8350  -17.2440 H    4252  WAT4252     0.2052
  12753  H2       -10.9870   11.9270  -18.7540 H    4252  WAT4252     0.2052
  12754  O        -10.6680   11.1360   -1.9910 O.3  4253  WAT4253    -0.4105
  12755  H1       -11.4340   11.7040   -2.0760 H    4253  WAT4253     0.2052
  12756  H2       -10.4860   10.8430   -2.8840 H    4253  WAT4253     0.2052
  12757  O         -7.5790   11.5120  -17.3660 O.3  4254  WAT4254    -0.4105
  12758  H1        -8.1280   11.9590  -16.7210 H    4254  WAT4254     0.2052
  12759  H2        -6.9570   11.0070  -16.8420 H    4254  WAT4254     0.2052
  12760  O         -3.5260   12.8660   -1.4340 O.3  4255  WAT4255    -0.4105
  12761  H1        -2.7850   13.2040   -1.9370 H    4255  WAT4255     0.2052
  12762  H2        -4.2880   13.0350   -1.9870 H    4255  WAT4255     0.2052
  12763  O        -15.6900    7.8720   -0.6300 O.3  4256  WAT4256    -0.4105
  12764  H1       -15.6490    7.5730    0.2790 H    4256  WAT4256     0.2052
  12765  H2       -14.8350    8.2720   -0.7890 H    4256  WAT4256     0.2052
  12766  O        -11.9120   10.4710  -15.4690 O.3  4257  WAT4257    -0.4105
  12767  H1       -11.4900   10.3050  -14.6260 H    4257  WAT4257     0.2052
  12768  H2       -11.7870    9.6610  -15.9640 H    4257  WAT4257     0.2052
  12769  O        -13.7490    6.4510   -2.6620 O.3  4258  WAT4258    -0.4105
  12770  H1       -14.2790    5.9600   -3.2900 H    4258  WAT4258     0.2052
  12771  H2       -13.0800    6.8790   -3.1960 H    4258  WAT4258     0.2052
  12772  O         -9.3990    9.4950  -18.2210 O.3  4259  WAT4259    -0.4105
  12773  H1        -8.8780    8.7800  -18.5870 H    4259  WAT4259     0.2052
  12774  H2        -8.7520   10.1330  -17.9210 H    4259  WAT4259     0.2052
  12775  O         -4.8510   10.9180   -2.8980 O.3  4260  WAT4260    -0.4105
  12776  H1        -4.4370   11.0720   -2.0490 H    4260  WAT4260     0.2052
  12777  H2        -5.7860   11.0430   -2.7350 H    4260  WAT4260     0.2052
  12778  O         -4.3790    8.2570   -0.8940 O.3  4261  WAT4261    -0.4105
  12779  H1        -3.7970    7.5030   -0.9820 H    4261  WAT4261     0.2052
  12780  H2        -4.2030    8.7880   -1.6710 H    4261  WAT4261     0.2052
  12781  O        -13.2620    3.4170   -2.5820 O.3  4262  WAT4262    -0.4105
  12782  H1       -13.3560    2.7990   -3.3070 H    4262  WAT4262     0.2052
  12783  H2       -13.8420    4.1440   -2.8090 H    4262  WAT4262     0.2052
  12784  O        -10.4960    1.9740   -5.5500 O.3  4263  WAT4263    -0.4105
  12785  H1       -10.9440    1.9970   -6.3950 H    4263  WAT4263     0.2052
  12786  H2       -11.1290    1.5760   -4.9530 H    4263  WAT4263     0.2052
  12787  O        -10.0900   10.8700   -4.9280 O.3  4264  WAT4264    -0.4105
  12788  H1        -9.6710   11.7130   -5.1010 H    4264  WAT4264     0.2052
  12789  H2       -11.0090   11.0070   -5.1580 H    4264  WAT4264     0.2052
  12790  O         -7.7530    8.6010   -3.5450 O.3  4265  WAT4265    -0.4105
  12791  H1        -7.6340    8.0050   -2.8050 H    4265  WAT4265     0.2052
  12792  H2        -6.8940    8.6380   -3.9640 H    4265  WAT4265     0.2052
  12793  O         -5.4140    9.1550   -4.9680 O.3  4266  WAT4266    -0.4105
  12794  H1        -5.9410    9.6790   -5.5720 H    4266  WAT4266     0.2052
  12795  H2        -5.0710    9.7880   -4.3370 H    4266  WAT4266     0.2052
  12796  O        -13.0160    6.5440  -18.5230 O.3  4267  WAT4267    -0.4105
  12797  H1       -13.2170    5.6810  -18.1620 H    4267  WAT4267     0.2052
  12798  H2       -13.1870    6.4580  -19.4610 H    4267  WAT4267     0.2052
  12799  O        -12.2390   17.1750   -3.8130 O.3  4268  WAT4268    -0.4105
  12800  H1       -12.7770   17.9000   -4.1320 H    4268  WAT4268     0.2052
  12801  H2       -11.9860   16.6980   -4.6030 H    4268  WAT4268     0.2052
  12802  O        -10.9860    5.1430   -2.2870 O.3  4269  WAT4269    -0.4105
  12803  H1       -10.3960    4.8350   -1.5990 H    4269  WAT4269     0.2052
  12804  H2       -11.8040    4.6710   -2.1310 H    4269  WAT4269     0.2052
  12805  O         -6.1670    4.7600   -2.0540 O.3  4270  WAT4270    -0.4105
  12806  H1        -6.8560    4.0980   -2.1190 H    4270  WAT4270     0.2052
  12807  H2        -5.4460    4.3140   -1.6090 H    4270  WAT4270     0.2052
  12808  O         -5.5370    1.3550  -15.9950 O.3  4271  WAT4271    -0.4105
  12809  H1        -5.2570    0.5120  -15.6390 H    4271  WAT4271     0.2052
  12810  H2        -6.3100    1.5880  -15.4810 H    4271  WAT4271     0.2052
  12811  O        -14.2180    3.6440  -18.5360 O.3  4272  WAT4272    -0.4105
  12812  H1       -13.9150    3.6510  -19.4440 H    4272  WAT4272     0.2052
  12813  H2       -13.4780    3.2940  -18.0390 H    4272  WAT4272     0.2052
  12814  O         -9.3830   18.4100   -3.5540 O.3  4273  WAT4273    -0.4105
  12815  H1        -9.4570   19.3140   -3.2470 H    4273  WAT4273     0.2052
  12816  H2       -10.2850   18.0910   -3.5820 H    4273  WAT4273     0.2052
  12817  O        -10.9990    2.5880  -17.5500 O.3  4274  WAT4274    -0.4105
  12818  H1       -11.3470    1.9100  -18.1300 H    4274  WAT4274     0.2052
  12819  H2       -10.7980    2.1270  -16.7360 H    4274  WAT4274     0.2052
  12820  O         -8.8340   17.5760  -15.9310 O.3  4275  WAT4275    -0.4105
  12821  H1        -7.9390   17.9140  -15.9090 H    4275  WAT4275     0.2052
  12822  H2        -8.8020   16.8540  -16.5590 H    4275  WAT4275     0.2052
  12823  O        -15.1950   12.9490  -17.7030 O.3  4276  WAT4276    -0.4105
  12824  H1       -14.7570   13.4920  -17.0470 H    4276  WAT4276     0.2052
  12825  H2       -14.7100   12.1230  -17.6930 H    4276  WAT4276     0.2052
  12826  O        -17.9800   15.7380  -10.2510 O.3  4277  WAT4277    -0.4105
  12827  H1       -17.6500   14.8700  -10.4830 H    4277  WAT4277     0.2052
  12828  H2       -17.5510   15.9430   -9.4200 H    4277  WAT4277     0.2052
  12829  O        -13.3840   14.0680  -12.5900 O.3  4278  WAT4278    -0.4105
  12830  H1       -13.6840   13.9450  -11.6900 H    4278  WAT4278     0.2052
  12831  H2       -13.4900   13.2090  -12.9990 H    4278  WAT4278     0.2052
  12832  O        -17.4910   16.6050   -7.5120 O.3  4279  WAT4279    -0.4105
  12833  H1       -17.9280   16.7850   -6.6800 H    4279  WAT4279     0.2052
  12834  H2       -16.9230   17.3620   -7.6540 H    4279  WAT4279     0.2052
  12835  O         -1.8550   16.1060   -3.2250 O.3  4280  WAT4280    -0.4105
  12836  H1        -2.4550   16.1660   -3.9680 H    4280  WAT4280     0.2052
  12837  H2        -1.7250   15.1670   -3.0950 H    4280  WAT4280     0.2052
  12838  O         -0.6150   13.8480  -17.8880 O.3  4281  WAT4281    -0.4105
  12839  H1        -1.4450   13.9160  -17.4170 H    4281  WAT4281     0.2052
  12840  H2        -0.4370   14.7390  -18.1910 H    4281  WAT4281     0.2052
  12841  O         -1.1590   10.5930  -15.3840 O.3  4282  WAT4282    -0.4105
  12842  H1        -0.3970   11.1630  -15.2780 H    4282  WAT4282     0.2052
  12843  H2        -1.1440   10.0260  -14.6130 H    4282  WAT4282     0.2052
  12844  O        -17.6590    9.1170  -11.1540 O.3  4283  WAT4283    -0.4105
  12845  H1       -18.3140    8.8480  -11.7980 H    4283  WAT4283     0.2052
  12846  H2       -16.8210    9.0070  -11.6030 H    4283  WAT4283     0.2052
  12847  O         -0.1530   11.4480  -10.5400 O.3  4284  WAT4284    -0.4105
  12848  H1         0.2180   10.6650  -10.9470 H    4284  WAT4284     0.2052
  12849  H2         0.4870   12.1370  -10.7180 H    4284  WAT4284     0.2052
  12850  O         -3.1700   12.8320   -5.1270 O.3  4285  WAT4285    -0.4105
  12851  H1        -3.9840   13.2610   -4.8650 H    4285  WAT4285     0.2052
  12852  H2        -2.7620   13.4430   -5.7400 H    4285  WAT4285     0.2052
  12853  O         -1.1070   10.8860  -18.2270 O.3  4286  WAT4286    -0.4105
  12854  H1        -0.8320   11.7940  -18.3550 H    4286  WAT4286     0.2052
  12855  H2        -1.2960   10.8230  -17.2910 H    4286  WAT4286     0.2052
  12856  O         -4.7090    3.9110  -16.9320 O.3  4287  WAT4287    -0.4105
  12857  H1        -4.2910    3.7240  -17.7720 H    4287  WAT4287     0.2052
  12858  H2        -5.0160    3.0590  -16.6210 H    4287  WAT4287     0.2052
  12859  O         -1.2100    8.8230  -13.2340 O.3  4288  WAT4288    -0.4105
  12860  H1        -1.5860    8.0560  -13.6660 H    4288  WAT4288     0.2052
  12861  H2        -1.9400    9.2050  -12.7470 H    4288  WAT4288     0.2052
  12862  O        -16.6210    9.5020   -6.6130 O.3  4289  WAT4289    -0.4105
  12863  H1       -16.2540    9.4150   -5.7340 H    4289  WAT4289     0.2052
  12864  H2       -17.1900    8.7390   -6.7130 H    4289  WAT4289     0.2052
  12865  O         -1.8210    7.9700   -3.6000 O.3  4290  WAT4290    -0.4105
  12866  H1        -2.0520    7.7420   -4.5000 H    4290  WAT4290     0.2052
  12867  H2        -1.5600    8.8900   -3.6460 H    4290  WAT4290     0.2052
  12868  O        -17.0690    6.4130   -2.7070 O.3  4291  WAT4291    -0.4105
  12869  H1       -17.9640    6.3800   -2.3680 H    4291  WAT4291     0.2052
  12870  H2       -16.5300    6.6120   -1.9420 H    4291  WAT4291     0.2052
  12871  O         -3.3820    3.1960   -0.8220 O.3  4292  WAT4292    -0.4105
  12872  H1        -2.5050    3.2040   -0.4390 H    4292  WAT4292     0.2052
  12873  H2        -3.3700    2.4590   -1.4330 H    4292  WAT4292     0.2052
  12874  O        -18.4450    6.3270  -15.2110 O.3  4293  WAT4293    -0.4105
  12875  H1       -19.3480    6.5900  -15.3860 H    4293  WAT4293     0.2052
  12876  H2       -17.9610    6.5980  -15.9910 H    4293  WAT4293     0.2052
  12877  O         -1.9350    7.0490   -9.9330 O.3  4294  WAT4294    -0.4105
  12878  H1        -1.4120    6.5550  -10.5640 H    4294  WAT4294     0.2052
  12879  H2        -1.3490    7.1840   -9.1890 H    4294  WAT4294     0.2052
  12880  O         -1.7560    7.1330   -6.4110 O.3  4295  WAT4295    -0.4105
  12881  H1        -2.7060    7.0990   -6.2970 H    4295  WAT4295     0.2052
  12882  H2        -1.5750    8.0430   -6.6460 H    4295  WAT4295     0.2052
  12883  O        -15.9020    5.3830  -17.3020 O.3  4296  WAT4296    -0.4105
  12884  H1       -15.1930    4.9610  -17.7870 H    4296  WAT4296     0.2052
  12885  H2       -16.6180    5.4510  -17.9330 H    4296  WAT4296     0.2052
  12886  O        -16.2550    1.4370  -18.2610 O.3  4297  WAT4297    -0.4105
  12887  H1       -15.5320    1.9780  -17.9430 H    4297  WAT4297     0.2052
  12888  H2       -15.9820    1.1630  -19.1370 H    4297  WAT4297     0.2052
  12889  O         -2.4450    6.3060  -13.9940 O.3  4298  WAT4298    -0.4105
  12890  H1        -1.9490    6.0730  -13.2090 H    4298  WAT4298     0.2052
  12891  H2        -2.6440    5.4670  -14.4100 H    4298  WAT4298     0.2052
  12892  O        -16.5650    0.6880   -8.3590 O.3  4299  WAT4299    -0.4105
  12893  H1       -15.9180    0.1370   -8.8000 H    4299  WAT4299     0.2052
  12894  H2       -16.1450    0.9420   -7.5370 H    4299  WAT4299     0.2052
  12895  O         -1.0170    4.9420  -11.4600 O.3  4300  WAT4300    -0.4105
  12896  H1        -1.1270    4.7880  -10.5220 H    4300  WAT4300     0.2052
  12897  H2        -0.2560    4.4140  -11.7030 H    4300  WAT4300     0.2052
  12898  O         -2.6700    0.8820   -5.0020 O.3  4301  WAT4301    -0.4105
  12899  H1        -2.0330    1.4950   -4.6360 H    4301  WAT4301     0.2052
  12900  H2        -2.5230    0.9180   -5.9470 H    4301  WAT4301     0.2052
  12901  O         -0.1280    2.7730  -18.2200 O.3  4302  WAT4302    -0.4105
  12902  H1         0.7970    2.6410  -18.4280 H    4302  WAT4302     0.2052
  12903  H2        -0.1500    2.8520  -17.2660 H    4302  WAT4302     0.2052
  12904  O         -0.0540    3.5440  -15.5940 O.3  4303  WAT4303    -0.4105
  12905  H1        -0.8490    3.4790  -15.0650 H    4303  WAT4303     0.2052
  12906  H2         0.1510    4.4790  -15.6060 H    4303  WAT4303     0.2052
  12907  O         -3.1120   17.5830  -11.6000 O.3  4304  WAT4304    -0.4105
  12908  H1        -2.5160   17.2620  -12.2770 H    4304  WAT4304     0.2052
  12909  H2        -2.8540   17.1110  -10.8090 H    4304  WAT4304     0.2052
  12910  O        -16.8120    0.8430   -5.6170 O.3  4305  WAT4305    -0.4105
  12911  H1       -17.1610    1.3000   -4.8510 H    4305  WAT4305     0.2052
  12912  H2       -17.1430   -0.0510   -5.5340 H    4305  WAT4305     0.2052
  12913  O        -15.2060   14.0150   -1.4510 O.3  4306  WAT4306    -0.4105
  12914  H1       -15.2490   13.6440   -0.5700 H    4306  WAT4306     0.2052
  12915  H2       -15.0750   14.9530   -1.3110 H    4306  WAT4306     0.2052
  12916  O        -11.5050   15.5710   -5.8500 O.3  4307  WAT4307    -0.4105
  12917  H1       -11.7460   15.8390   -6.7370 H    4307  WAT4307     0.2052
  12918  H2       -10.5650   15.7420   -5.7950 H    4307  WAT4307     0.2052
  12919  O         -9.3000    2.0340   -2.0950 O.3  4308  WAT4308    -0.4105
  12920  H1        -9.3610    2.6270   -1.3450 H    4308  WAT4308     0.2052
  12921  H2        -8.3600    1.9270   -2.2400 H    4308  WAT4308     0.2052
  12922  O         -6.6620    1.6910   -2.4550 O.3  4309  WAT4309    -0.4105
  12923  H1        -6.0480    2.0090   -3.1170 H    4309  WAT4309     0.2052
  12924  H2        -6.1170    1.2060   -1.8360 H    4309  WAT4309     0.2052
  12925  O         -0.2450   17.5910   -5.0490 O.3  4310  WAT4310    -0.4105
  12926  H1        -0.7390   17.9870   -5.7660 H    4310  WAT4310     0.2052
  12927  H2        -0.8530   16.9660   -4.6550 H    4310  WAT4310     0.2052
  12928  O        -16.1400    0.3710   -2.3410 O.3  4311  WAT4311    -0.4105
  12929  H1       -15.5920    0.1900   -3.1050 H    4311  WAT4311     0.2052
  12930  H2       -16.0750   -0.4200   -1.8060 H    4311  WAT4311     0.2052
  12931  O        -15.3670   16.9610   -4.3310 O.3  4312  WAT4312    -0.4105
  12932  H1       -15.9610   16.8300   -3.5920 H    4312  WAT4312     0.2052
  12933  H2       -15.3750   16.1250   -4.7970 H    4312  WAT4312     0.2052
  12934  O         -5.9210    0.2550   -6.1280 O.3  4313  WAT4313    -0.4105
  12935  H1        -6.7950    0.5880   -6.3310 H    4313  WAT4313     0.2052
  12936  H2        -6.0300   -0.2180   -5.3030 H    4313  WAT4313     0.2052
  12937  O         -5.0140    2.4620   -4.7440 O.3  4314  WAT4314    -0.4105
  12938  H1        -5.3430    1.6470   -5.1240 H    4314  WAT4314     0.2052
  12939  H2        -4.0660    2.4190   -4.8680 H    4314  WAT4314     0.2052
  12940  O         -2.5610   18.2330   -7.7700 O.3  4315  WAT4315    -0.4105
  12941  H1        -3.0200   18.9850   -8.1450 H    4315  WAT4315     0.2052
  12942  H2        -3.1890   17.5140   -7.8290 H    4315  WAT4315     0.2052
  12943  O        -15.7360   14.3270   -5.3810 O.3  4316  WAT4316    -0.4105
  12944  H1       -16.4620   13.7080   -5.4480 H    4316  WAT4316     0.2052
  12945  H2       -15.6750   14.7210   -6.2510 H    4316  WAT4316     0.2052
  12946  O        -12.1310   16.5420   -8.5960 O.3  4317  WAT4317    -0.4105
  12947  H1       -11.6150   15.9300   -9.1210 H    4317  WAT4317     0.2052
  12948  H2       -11.4810   17.0450   -8.1050 H    4317  WAT4317     0.2052
  12949  O         -9.3920   17.4330   -7.7690 O.3  4318  WAT4318    -0.4105
  12950  H1        -9.1040   17.1780   -8.6450 H    4318  WAT4318     0.2052
  12951  H2        -8.8790   16.8800   -7.1780 H    4318  WAT4318     0.2052
  12952  O         -8.1740    1.1720   -7.1890 O.3  4319  WAT4319    -0.4105
  12953  H1        -8.9570    1.6460   -6.9090 H    4319  WAT4319     0.2052
  12954  H2        -8.4680    0.2670   -7.2980 H    4319  WAT4319     0.2052
  12955  O         -3.6220    1.8740   -9.1440 O.3  4320  WAT4320    -0.4105
  12956  H1        -3.1810    1.8180   -9.9920 H    4320  WAT4320     0.2052
  12957  H2        -3.8910    2.7900   -9.0730 H    4320  WAT4320     0.2052
  12958  O         -1.7580    1.5050  -11.1330 O.3  4321  WAT4321    -0.4105
  12959  H1        -1.8190    0.5620  -11.2800 H    4321  WAT4321     0.2052
  12960  H2        -0.9790    1.6130  -10.5880 H    4321  WAT4321     0.2052
  12961  O        -17.4530   17.6450  -12.1710 O.3  4322  WAT4322    -0.4105
  12962  H1       -17.6200   17.0120  -11.4730 H    4322  WAT4322     0.2052
  12963  H2       -18.3190   17.8510  -12.5220 H    4322  WAT4322     0.2052
  12964  O        -16.8300    1.4760  -14.6680 O.3  4323  WAT4323    -0.4105
  12965  H1       -16.0720    1.5890  -15.2410 H    4323  WAT4323     0.2052
  12966  H2       -17.2920    2.3130  -14.7130 H    4323  WAT4323     0.2052
  12967  O        -10.2880    3.5900  -11.6780 O.3  4324  WAT4324    -0.4105
  12968  H1       -11.1010    3.2160  -12.0180 H    4324  WAT4324     0.2052
  12969  H2        -9.7840    2.8350  -11.3750 H    4324  WAT4324     0.2052
  12970  O         -5.7860    0.2550  -10.4390 O.3  4325  WAT4325    -0.4105
  12971  H1        -5.1830    0.8270   -9.9640 H    4325  WAT4325     0.2052
  12972  H2        -6.5270    0.8180  -10.6620 H    4325  WAT4325     0.2052
  12973  O         -2.6430    0.6570  -15.1650 O.3  4326  WAT4326    -0.4105
  12974  H1        -2.4470    1.5550  -14.8980 H    4326  WAT4326     0.2052
  12975  H2        -3.4300    0.4250  -14.6720 H    4326  WAT4326     0.2052
  12976  O        -15.8460   16.3380  -14.7260 O.3  4327  WAT4327    -0.4105
  12977  H1       -16.3720   16.7190  -15.4300 H    4327  WAT4327     0.2052
  12978  H2       -15.9220   16.9630  -14.0050 H    4327  WAT4327     0.2052
  12979  O        -14.4570    2.0030  -16.1280 O.3  4328  WAT4328    -0.4105
  12980  H1       -13.9280    1.2160  -16.2570 H    4328  WAT4328     0.2052
  12981  H2       -13.8250    2.6820  -15.8940 H    4328  WAT4328     0.2052
  12982  O        -12.2640    1.7400  -13.0730 O.3  4329  WAT4329    -0.4105
  12983  H1       -12.8930    1.0390  -12.9060 H    4329  WAT4329     0.2052
  12984  H2       -12.8030    2.5010  -13.2900 H    4329  WAT4329     0.2052
  12985  O         -9.3240   18.3540   -0.4020 O.3  4330  WAT4330    -0.4105
  12986  H1        -8.3980   18.1190   -0.3580 H    4330  WAT4330     0.2052
  12987  H2        -9.3390   19.1810   -0.8830 H    4330  WAT4330     0.2052
  12988  O         -1.0900   17.8970  -13.4050 O.3  4331  WAT4331    -0.4105
  12989  H1        -0.9150   17.2110  -14.0480 H    4331  WAT4331     0.2052
  12990  H2        -1.7880   18.4210  -13.7970 H    4331  WAT4331     0.2052
  12991  O        -12.1380    1.0190   -0.6380 O.3  4332  WAT4332    -0.4105
  12992  H1       -12.4200    1.5220   -1.4020 H    4332  WAT4332     0.2052
  12993  H2       -11.7560    0.2210   -1.0040 H    4332  WAT4332     0.2052
  12994  O        -13.2470   18.2860  -15.8510 O.3  4333  WAT4333    -0.4105
  12995  H1       -12.5150   18.0020  -16.3990 H    4333  WAT4333     0.2052
  12996  H2       -12.9880   18.0480  -14.9610 H    4333  WAT4333     0.2052
  12997  O        -14.0860   14.4030  -15.8460 O.3  4334  WAT4334    -0.4105
  12998  H1       -14.7150   14.8710  -15.2980 H    4334  WAT4334     0.2052
  12999  H2       -13.9710   13.5580  -15.4120 H    4334  WAT4334     0.2052
  13000  O         -5.5360    0.4340   -0.0600 O.3  4335  WAT4335    -0.4105
  13001  H1        -5.6500    0.7540    0.8350 H    4335  WAT4335     0.2052
  13002  H2        -4.7200    0.8350   -0.3560 H    4335  WAT4335     0.2052
  13003  O         -2.7570   17.5810   -0.5780 O.3  4336  WAT4336    -0.4105
  13004  H1        -1.9640   17.0860   -0.7850 H    4336  WAT4336     0.2052
  13005  H2        -2.4630   18.2600    0.0300 H    4336  WAT4336     0.2052
  13006  O         -8.4990   10.2310  -27.8150 O.3  4337  WAT4337    -0.4105
  13007  H1        -9.2750    9.7510  -27.5250 H    4337  WAT4337     0.2052
  13008  H2        -7.8480    9.5520  -27.9900 H    4337  WAT4337     0.2052
  13009  O        -14.4820   10.5430  -26.9380 O.3  4338  WAT4338    -0.4105
  13010  H1       -15.3140   10.2880  -26.5380 H    4338  WAT4338     0.2052
  13011  H2       -13.8740   10.6140  -26.2020 H    4338  WAT4338     0.2052
  13012  O         -4.4780   14.6370  -29.0350 O.3  4339  WAT4339    -0.4105
  13013  H1        -4.9400   13.8660  -28.7070 H    4339  WAT4339     0.2052
  13014  H2        -3.6660   14.6640  -28.5300 H    4339  WAT4339     0.2052
  13015  O        -14.5020   14.5770  -26.7420 O.3  4340  WAT4340    -0.4105
  13016  H1       -14.1990   13.6870  -26.9210 H    4340  WAT4340     0.2052
  13017  H2       -13.7580   15.1340  -26.9700 H    4340  WAT4340     0.2052
  13018  O        -18.1100    8.1040  -27.2700 O.3  4341  WAT4341    -0.4105
  13019  H1       -17.5380    7.3360  -27.2690 H    4341  WAT4341     0.2052
  13020  H2       -18.1100    8.4030  -28.1790 H    4341  WAT4341     0.2052
  13021  O         -9.0580   12.9070  -27.8080 O.3  4342  WAT4342    -0.4105
  13022  H1        -9.1270   11.9660  -27.9690 H    4342  WAT4342     0.2052
  13023  H2        -8.2960   12.9970  -27.2360 H    4342  WAT4342     0.2052
  13024  O        -16.8670    3.5120  -25.4830 O.3  4343  WAT4343    -0.4105
  13025  H1       -17.0470    2.6150  -25.2020 H    4343  WAT4343     0.2052
  13026  H2       -17.2690    4.0600  -24.8080 H    4343  WAT4343     0.2052
  13027  O         -8.0270    5.7140  -27.5810 O.3  4344  WAT4344    -0.4105
  13028  H1        -7.6510    4.8410  -27.6940 H    4344  WAT4344     0.2052
  13029  H2        -8.1250    6.0500  -28.4720 H    4344  WAT4344     0.2052
  13030  O        -16.2490    6.0080  -26.8740 O.3  4345  WAT4345    -0.4105
  13031  H1       -15.5680    6.2720  -26.2560 H    4345  WAT4345     0.2052
  13032  H2       -16.5640    5.1690  -26.5410 H    4345  WAT4345     0.2052
  13033  O        -12.0560    7.0550  -27.7870 O.3  4346  WAT4346    -0.4105
  13034  H1       -11.5480    7.5530  -27.1470 H    4346  WAT4346     0.2052
  13035  H2       -11.5250    6.2790  -27.9630 H    4346  WAT4346     0.2052
  13036  O          0.0450    5.2260  -24.0840 O.3  4347  WAT4347    -0.4105
  13037  H1        -0.6600    5.6140  -24.6030 H    4347  WAT4347     0.2052
  13038  H2         0.3110    5.9210  -23.4820 H    4347  WAT4347     0.2052
  13039  O        -13.7730    1.6950  -23.5210 O.3  4348  WAT4348    -0.4105
  13040  H1       -13.7710    2.2120  -24.3260 H    4348  WAT4348     0.2052
  13041  H2       -14.6020    1.2180  -23.5440 H    4348  WAT4348     0.2052
  13042  O        -12.5220   11.3350  -25.3430 O.3  4349  WAT4349    -0.4105
  13043  H1       -12.8550   11.9610  -24.7010 H    4349  WAT4349     0.2052
  13044  H2       -12.3460   11.8610  -26.1230 H    4349  WAT4349     0.2052
  13045  O         -4.0090    5.1490  -27.8760 O.3  4350  WAT4350    -0.4105
  13046  H1        -4.7130    5.4380  -27.2960 H    4350  WAT4350     0.2052
  13047  H2        -3.6480    5.9590  -28.2360 H    4350  WAT4350     0.2052
  13048  O        -14.0910    3.4060  -25.5140 O.3  4351  WAT4351    -0.4105
  13049  H1       -13.7490    4.2500  -25.8080 H    4351  WAT4351     0.2052
  13050  H2       -15.0290    3.5540  -25.3970 H    4351  WAT4351     0.2052
  13051  O        -13.3100   13.3030  -23.5290 O.3  4352  WAT4352    -0.4105
  13052  H1       -12.6930   13.9780  -23.8100 H    4352  WAT4352     0.2052
  13053  H2       -14.1710   13.7110  -23.6200 H    4352  WAT4352     0.2052
  13054  O         -2.3930   14.7670  -25.6130 O.3  4353  WAT4353    -0.4105
  13055  H1        -3.0760   15.4360  -25.6210 H    4353  WAT4353     0.2052
  13056  H2        -1.8530   14.9650  -26.3790 H    4353  WAT4353     0.2052
  13057  O         -0.9400    4.5950  -27.4850 O.3  4354  WAT4354    -0.4105
  13058  H1        -1.8880    4.6280  -27.3530 H    4354  WAT4354     0.2052
  13059  H2        -0.6150    5.4080  -27.1000 H    4354  WAT4354     0.2052
  13060  O        -10.4080    0.8940  -29.1890 O.3  4355  WAT4355    -0.4105
  13061  H1       -10.1010    0.3390  -29.9060 H    4355  WAT4355     0.2052
  13062  H2       -11.3380    1.0290  -29.3720 H    4355  WAT4355     0.2052
  13063  O         -4.8570   16.6110  -26.8990 O.3  4356  WAT4356    -0.4105
  13064  H1        -4.8440   16.2070  -27.7660 H    4356  WAT4356     0.2052
  13065  H2        -5.4090   17.3860  -27.0020 H    4356  WAT4356     0.2052
  13066  O         -5.4580   11.5140  -25.5700 O.3  4357  WAT4357    -0.4105
  13067  H1        -5.0410   11.3000  -26.4050 H    4357  WAT4357     0.2052
  13068  H2        -4.7340   11.7710  -24.9990 H    4357  WAT4357     0.2052
  13069  O         -1.5120    9.9130  -25.4790 O.3  4358  WAT4358    -0.4105
  13070  H1        -2.3400    9.9820  -25.9540 H    4358  WAT4358     0.2052
  13071  H2        -0.9170   10.4980  -25.9470 H    4358  WAT4358     0.2052
  13072  O         -4.5480    6.7000  -24.5330 O.3  4359  WAT4359    -0.4105
  13073  H1        -4.9610    7.5250  -24.2790 H    4359  WAT4359     0.2052
  13074  H2        -5.2800    6.1140  -24.7260 H    4359  WAT4359     0.2052
  13075  O        -11.9460   13.1720  -27.5070 O.3  4360  WAT4360    -0.4105
  13076  H1       -12.2430   12.5670  -28.1870 H    4360  WAT4360     0.2052
  13077  H2       -10.9960   13.2100  -27.6180 H    4360  WAT4360     0.2052
  13078  O        -13.7020    6.2600  -25.8910 O.3  4361  WAT4361    -0.4105
  13079  H1       -13.1500    6.3690  -26.6660 H    4361  WAT4361     0.2052
  13080  H2       -13.1870    6.6340  -25.1760 H    4361  WAT4361     0.2052
  13081  O         -3.8580   16.7460  -23.8450 O.3  4362  WAT4362    -0.4105
  13082  H1        -4.3350   17.5530  -24.0380 H    4362  WAT4362     0.2052
  13083  H2        -4.5420   16.0930  -23.6920 H    4362  WAT4362     0.2052
  13084  O        -12.8540   12.9110  -20.8570 O.3  4363  WAT4363    -0.4105
  13085  H1       -13.7520   13.1350  -20.6090 H    4363  WAT4363     0.2052
  13086  H2       -12.8290   13.0340  -21.8050 H    4363  WAT4363     0.2052
  13087  O        -14.0270    9.7820  -22.2810 O.3  4364  WAT4364    -0.4105
  13088  H1       -14.1670   10.6540  -21.9120 H    4364  WAT4364     0.2052
  13089  H2       -14.9090    9.4390  -22.4260 H    4364  WAT4364     0.2052
  13090  O        -12.2290   15.7240  -20.0720 O.3  4365  WAT4365    -0.4105
  13091  H1       -12.2580   16.1280  -20.9400 H    4365  WAT4365     0.2052
  13092  H2       -12.3930   14.7950  -20.2350 H    4365  WAT4365     0.2052
  13093  O         -0.2780   16.5070  -18.7760 O.3  4366  WAT4366    -0.4105
  13094  H1         0.1980   16.9850  -18.0970 H    4366  WAT4366     0.2052
  13095  H2         0.3430   16.4380  -19.5010 H    4366  WAT4366     0.2052
  13096  O        -18.0750   11.5520  -26.3640 O.3  4367  WAT4367    -0.4105
  13097  H1       -17.9970   11.6860  -27.3080 H    4367  WAT4367     0.2052
  13098  H2       -17.4610   10.8430  -26.1710 H    4367  WAT4367     0.2052
  13099  O         -0.8750   13.6980  -21.6160 O.3  4368  WAT4368    -0.4105
  13100  H1        -0.7480   13.4590  -22.5340 H    4368  WAT4368     0.2052
  13101  H2        -0.8320   12.8660  -21.1440 H    4368  WAT4368     0.2052
  13102  O         -7.0130   17.4010  -23.0460 O.3  4369  WAT4369    -0.4105
  13103  H1        -6.4980   17.3120  -22.2440 H    4369  WAT4369     0.2052
  13104  H2        -7.8560   17.7470  -22.7540 H    4369  WAT4369     0.2052
  13105  O         -1.0220    5.7510  -20.6510 O.3  4370  WAT4370    -0.4105
  13106  H1        -1.6380    6.2590  -21.1790 H    4370  WAT4370     0.2052
  13107  H2        -1.3420    4.8510  -20.7080 H    4370  WAT4370     0.2052
  13108  O        -18.0200   12.5930  -23.8240 O.3  4371  WAT4371    -0.4105
  13109  H1       -17.8560   12.1240  -24.6420 H    4371  WAT4371     0.2052
  13110  H2       -17.5540   12.0850  -23.1590 H    4371  WAT4371     0.2052
  13111  O        -13.2480    1.7240  -28.7880 O.3  4372  WAT4372    -0.4105
  13112  H1       -13.6910    2.5050  -29.1200 H    4372  WAT4372     0.2052
  13113  H2       -12.6890    2.0470  -28.0810 H    4372  WAT4372     0.2052
  13114  O         -8.9610    4.5900  -23.1850 O.3  4373  WAT4373    -0.4105
  13115  H1        -9.4230    4.7990  -22.3730 H    4373  WAT4373     0.2052
  13116  H2        -9.3630    3.7760  -23.4880 H    4373  WAT4373     0.2052
  13117  O         -3.9600    5.8110  -22.0550 O.3  4374  WAT4374    -0.4105
  13118  H1        -4.8110    5.5120  -21.7340 H    4374  WAT4374     0.2052
  13119  H2        -4.1200    6.0560  -22.9670 H    4374  WAT4374     0.2052
  13120  O         -6.8650    7.3120  -19.9550 O.3  4375  WAT4375    -0.4105
  13121  H1        -6.5400    6.4780  -20.2950 H    4375  WAT4375     0.2052
  13122  H2        -6.0770    7.8340  -19.8070 H    4375  WAT4375     0.2052
  13123  O        -11.2100    2.2680  -26.9290 O.3  4376  WAT4376    -0.4105
  13124  H1       -10.9130    3.1750  -27.0100 H    4376  WAT4376     0.2052
  13125  H2       -10.6620    1.7800  -27.5430 H    4376  WAT4376     0.2052
  13126  O        -11.0160    7.7460  -20.3940 O.3  4377  WAT4377    -0.4105
  13127  H1       -11.1120    6.8050  -20.5440 H    4377  WAT4377     0.2052
  13128  H2       -10.1730    7.9670  -20.7890 H    4377  WAT4377     0.2052
  13129  O        -15.8850    4.1570  -22.2410 O.3  4378  WAT4378    -0.4105
  13130  H1       -16.2790    5.0040  -22.0330 H    4378  WAT4378     0.2052
  13131  H2       -16.5730    3.5200  -22.0500 H    4378  WAT4378     0.2052
  13132  O         -9.3110    4.2400  -19.1710 O.3  4379  WAT4379    -0.4105
  13133  H1       -10.0010    4.0480  -18.5360 H    4379  WAT4379     0.2052
  13134  H2        -8.5680    4.5240  -18.6390 H    4379  WAT4379     0.2052
  13135  O        -18.5840    2.0800  -28.2080 O.3  4380  WAT4380    -0.4105
  13136  H1       -18.8720    2.6500  -27.4950 H    4380  WAT4380     0.2052
  13137  H2       -17.8390    1.6000  -27.8450 H    4380  WAT4380     0.2052
  13138  O         -7.0340    8.0800  -26.3360 O.3  4381  WAT4381    -0.4105
  13139  H1        -7.7660    8.5890  -25.9870 H    4381  WAT4381     0.2052
  13140  H2        -7.4320    7.2630  -26.6370 H    4381  WAT4381     0.2052
  13141  O        -10.5970    4.7560  -27.9300 O.3  4382  WAT4382    -0.4105
  13142  H1       -10.5930    4.3150  -28.7800 H    4382  WAT4382     0.2052
  13143  H2        -9.7020    5.0770  -27.8230 H    4382  WAT4382     0.2052
  13144  O        -14.7460    4.6380  -28.9710 O.3  4383  WAT4383    -0.4105
  13145  H1       -15.0860    5.1160  -28.2140 H    4383  WAT4383     0.2052
  13146  H2       -15.5090    4.1850  -29.3310 H    4383  WAT4383     0.2052
  13147  O         -6.5720    3.5340  -26.9230 O.3  4384  WAT4384    -0.4105
  13148  H1        -6.5550    3.9840  -26.0790 H    4384  WAT4384     0.2052
  13149  H2        -6.8200    2.6340  -26.7100 H    4384  WAT4384     0.2052
  13150  O         -3.1450    0.9470  -21.0850 O.3  4385  WAT4385    -0.4105
  13151  H1        -2.8200    0.2160  -20.5590 H    4385  WAT4385     0.2052
  13152  H2        -3.1090    0.6280  -21.9870 H    4385  WAT4385     0.2052
  13153  O        -16.4460   11.9680  -21.6650 O.3  4386  WAT4386    -0.4105
  13154  H1       -16.8300   11.3280  -21.0660 H    4386  WAT4386     0.2052
  13155  H2       -16.1340   12.6720  -21.0950 H    4386  WAT4386     0.2052
  13156  O        -10.2960    8.8160  -26.1840 O.3  4387  WAT4387    -0.4105
  13157  H1        -9.9290    8.3420  -25.4380 H    4387  WAT4387     0.2052
  13158  H2       -10.4850    9.6900  -25.8430 H    4387  WAT4387     0.2052
  13159  O        -12.5060    7.8570  -23.8650 O.3  4388  WAT4388    -0.4105
  13160  H1       -12.8100    8.7360  -23.6400 H    4388  WAT4388     0.2052
  13161  H2       -11.5510    7.9170  -23.8300 H    4388  WAT4388     0.2052
  13162  O         -3.2190   11.0590  -27.4760 O.3  4389  WAT4389    -0.4105
  13163  H1        -2.4990   11.5550  -27.8670 H    4389  WAT4389     0.2052
  13164  H2        -3.4210   10.3810  -28.1210 H    4389  WAT4389     0.2052
  13165  O         -7.8370   11.1300  -21.5890 O.3  4390  WAT4390    -0.4105
  13166  H1        -7.9030   10.2100  -21.8430 H    4390  WAT4390     0.2052
  13167  H2        -8.4670   11.2280  -20.8750 H    4390  WAT4390     0.2052
  13168  O        -13.9340   11.7310  -29.6310 O.3  4391  WAT4391    -0.4105
  13169  H1       -13.4160   10.9280  -29.6850 H    4391  WAT4391     0.2052
  13170  H2       -14.3860   11.6690  -28.7890 H    4391  WAT4391     0.2052
  13171  O        -16.4500    8.6970  -22.7180 O.3  4392  WAT4392    -0.4105
  13172  H1       -16.8080    9.3620  -22.1310 H    4392  WAT4392     0.2052
  13173  H2       -16.7440    7.8650  -22.3470 H    4392  WAT4392     0.2052
  13174  O        -13.2480    9.1550  -19.8340 O.3  4393  WAT4393    -0.4105
  13175  H1       -13.5480    9.3010  -20.7320 H    4393  WAT4393     0.2052
  13176  H2       -12.4770    8.5960  -19.9270 H    4393  WAT4393     0.2052
  13177  O         -7.9050   13.9520  -21.8390 O.3  4394  WAT4394    -0.4105
  13178  H1        -7.8910   13.0200  -22.0570 H    4394  WAT4394     0.2052
  13179  H2        -8.6130   14.0380  -21.2000 H    4394  WAT4394     0.2052
  13180  O         -1.6940   10.5930  -22.4920 O.3  4395  WAT4395    -0.4105
  13181  H1        -2.4200   11.1860  -22.6890 H    4395  WAT4395     0.2052
  13182  H2        -1.1670   10.5850  -23.2910 H    4395  WAT4395     0.2052
  13183  O         -6.1640   12.3190  -28.9940 O.3  4396  WAT4396    -0.4105
  13184  H1        -5.8120   11.7220  -29.6530 H    4396  WAT4396     0.2052
  13185  H2        -7.0480   11.9930  -28.8230 H    4396  WAT4396     0.2052
  13186  O         -8.4720   15.5940  -24.7450 O.3  4397  WAT4397    -0.4105
  13187  H1        -7.8280   15.8000  -24.0670 H    4397  WAT4397     0.2052
  13188  H2        -8.1090   14.8330  -25.1980 H    4397  WAT4397     0.2052
  13189  O         -7.1990   13.5970  -26.0270 O.3  4398  WAT4398    -0.4105
  13190  H1        -6.5570   12.8970  -25.9140 H    4398  WAT4398     0.2052
  13191  H2        -6.6740   14.3770  -26.2070 H    4398  WAT4398     0.2052
  13192  O         -5.4250   14.3970  -22.8230 O.3  4399  WAT4399    -0.4105
  13193  H1        -5.0890   14.9830  -22.1460 H    4399  WAT4399     0.2052
  13194  H2        -6.3450   14.2660  -22.5940 H    4399  WAT4399     0.2052
  13195  O        -17.8750    2.1860  -22.0410 O.3  4400  WAT4400    -0.4105
  13196  H1       -18.5890    2.3860  -21.4360 H    4400  WAT4400     0.2052
  13197  H2       -17.4550    1.4100  -21.6700 H    4400  WAT4400     0.2052
  13198  O        -17.5880   16.1740  -21.0540 O.3  4401  WAT4401    -0.4105
  13199  H1       -17.4780   15.2340  -21.1950 H    4401  WAT4401     0.2052
  13200  H2       -18.2390   16.4400  -21.7030 H    4401  WAT4401     0.2052
  13201  O         -9.5960   14.4460  -19.6550 O.3  4402  WAT4402    -0.4105
  13202  H1        -9.9170   13.7270  -19.1100 H    4402  WAT4402     0.2052
  13203  H2       -10.2700   15.1210  -19.5810 H    4402  WAT4402     0.2052
  13204  O         -6.3810    4.6790  -24.2910 O.3  4403  WAT4403    -0.4105
  13205  H1        -6.0130    3.8580  -23.9630 H    4403  WAT4403     0.2052
  13206  H2        -7.2410    4.7390  -23.8750 H    4403  WAT4403     0.2052
  13207  O         -9.4210    7.3320  -24.0670 O.3  4404  WAT4404    -0.4105
  13208  H1        -8.9220    7.8070  -23.4020 H    4404  WAT4404     0.2052
  13209  H2        -9.2780    6.4090  -23.8600 H    4404  WAT4404     0.2052
  13210  O         -2.2140    3.5490  -23.2240 O.3  4405  WAT4405    -0.4105
  13211  H1        -2.7170    4.2900  -22.8850 H    4405  WAT4405     0.2052
  13212  H2        -1.3980    3.9380  -23.5410 H    4405  WAT4405     0.2052
  13213  O         -3.9220    8.7930  -29.7780 O.3  4406  WAT4406    -0.4105
  13214  H1        -4.8630    8.8080  -29.6030 H    4406  WAT4406     0.2052
  13215  H2        -3.6070    8.0060  -29.3320 H    4406  WAT4406     0.2052
  13216  O         -1.9190   15.9630  -28.1030 O.3  4407  WAT4407    -0.4105
  13217  H1        -1.7950   16.7870  -27.6300 H    4407  WAT4407     0.2052
  13218  H2        -1.0530   15.7530  -28.4500 H    4407  WAT4407     0.2052
  13219  O        -14.4470   18.0570  -28.4310 O.3  4408  WAT4408    -0.4105
  13220  H1       -13.7110   17.5080  -28.1600 H    4408  WAT4408     0.2052
  13221  H2       -14.0630   18.9220  -28.5700 H    4408  WAT4408     0.2052
  13222  O        -15.4420   17.2410  -19.2430 O.3  4409  WAT4409    -0.4105
  13223  H1       -14.6400   17.5620  -18.8290 H    4409  WAT4409     0.2052
  13224  H2       -15.9560   16.8810  -18.5210 H    4409  WAT4409     0.2052
  13225  O         -6.6050   13.3490  -19.2950 O.3  4410  WAT4410    -0.4105
  13226  H1        -7.2110   13.3720  -20.0350 H    4410  WAT4410     0.2052
  13227  H2        -6.9100   12.6170  -18.7580 H    4410  WAT4410     0.2052
  13228  O         -5.1750   17.0770  -20.6840 O.3  4411  WAT4411    -0.4105
  13229  H1        -4.2230   16.9930  -20.7340 H    4411  WAT4411     0.2052
  13230  H2        -5.3220   17.7410  -20.0110 H    4411  WAT4411     0.2052
  13231  O        -17.7220    9.7290  -20.2990 O.3  4412  WAT4412    -0.4105
  13232  H1       -17.2180    9.1490  -19.7270 H    4412  WAT4412     0.2052
  13233  H2       -18.4610   10.0130  -19.7610 H    4412  WAT4412     0.2052
  13234  O        -10.6680   11.1360  -20.7650 O.3  4413  WAT4413    -0.4105
  13235  H1       -11.4340   11.7040  -20.8500 H    4413  WAT4413     0.2052
  13236  H2       -10.4860   10.8430  -21.6590 H    4413  WAT4413     0.2052
  13237  O         -3.5260   12.8660  -20.2080 O.3  4414  WAT4414    -0.4105
  13238  H1        -2.7850   13.2040  -20.7110 H    4414  WAT4414     0.2052
  13239  H2        -4.2880   13.0350  -20.7610 H    4414  WAT4414     0.2052
  13240  O        -15.6900    7.8720  -19.4040 O.3  4415  WAT4415    -0.4105
  13241  H1       -15.6490    7.5730  -18.4950 H    4415  WAT4415     0.2052
  13242  H2       -14.8350    8.2720  -19.5630 H    4415  WAT4415     0.2052
  13243  O        -13.7490    6.4510  -21.4360 O.3  4416  WAT4416    -0.4105
  13244  H1       -14.2790    5.9600  -22.0640 H    4416  WAT4416     0.2052
  13245  H2       -13.0800    6.8790  -21.9710 H    4416  WAT4416     0.2052
  13246  O         -4.8510   10.9180  -21.6720 O.3  4417  WAT4417    -0.4105
  13247  H1        -4.4370   11.0720  -20.8230 H    4417  WAT4417     0.2052
  13248  H2        -5.7860   11.0430  -21.5100 H    4417  WAT4417     0.2052
  13249  O         -4.3790    8.2570  -19.6680 O.3  4418  WAT4418    -0.4105
  13250  H1        -3.7970    7.5030  -19.7560 H    4418  WAT4418     0.2052
  13251  H2        -4.2030    8.7880  -20.4450 H    4418  WAT4418     0.2052
  13252  O        -13.2620    3.4170  -21.3570 O.3  4419  WAT4419    -0.4105
  13253  H1       -13.3560    2.7990  -22.0820 H    4419  WAT4419     0.2052
  13254  H2       -13.8420    4.1440  -21.5840 H    4419  WAT4419     0.2052
  13255  O        -10.4960    1.9740  -24.3240 O.3  4420  WAT4420    -0.4105
  13256  H1       -10.9440    1.9970  -25.1690 H    4420  WAT4420     0.2052
  13257  H2       -11.1290    1.5760  -23.7270 H    4420  WAT4420     0.2052
  13258  O        -10.0900   10.8700  -23.7030 O.3  4421  WAT4421    -0.4105
  13259  H1        -9.6710   11.7130  -23.8750 H    4421  WAT4421     0.2052
  13260  H2       -11.0090   11.0070  -23.9320 H    4421  WAT4421     0.2052
  13261  O         -7.7530    8.6010  -22.3190 O.3  4422  WAT4422    -0.4105
  13262  H1        -7.6340    8.0050  -21.5790 H    4422  WAT4422     0.2052
  13263  H2        -6.8940    8.6380  -22.7390 H    4422  WAT4422     0.2052
  13264  O         -5.4140    9.1550  -23.7430 O.3  4423  WAT4423    -0.4105
  13265  H1        -5.9410    9.6790  -24.3460 H    4423  WAT4423     0.2052
  13266  H2        -5.0710    9.7880  -23.1120 H    4423  WAT4423     0.2052
  13267  O        -12.2390   17.1750  -22.5870 O.3  4424  WAT4424    -0.4105
  13268  H1       -12.7770   17.9000  -22.9060 H    4424  WAT4424     0.2052
  13269  H2       -11.9860   16.6980  -23.3770 H    4424  WAT4424     0.2052
  13270  O        -10.9860    5.1430  -21.0610 O.3  4425  WAT4425    -0.4105
  13271  H1       -10.3960    4.8350  -20.3740 H    4425  WAT4425     0.2052
  13272  H2       -11.8040    4.6710  -20.9050 H    4425  WAT4425     0.2052
  13273  O         -6.1670    4.7600  -20.8280 O.3  4426  WAT4426    -0.4105
  13274  H1        -6.8560    4.0980  -20.8930 H    4426  WAT4426     0.2052
  13275  H2        -5.4460    4.3140  -20.3830 H    4426  WAT4426     0.2052
  13276  O         -9.3830   18.4100  -22.3280 O.3  4427  WAT4427    -0.4105
  13277  H1        -9.4570   19.3140  -22.0210 H    4427  WAT4427     0.2052
  13278  H2       -10.2850   18.0910  -22.3560 H    4427  WAT4427     0.2052
  13279  O        -17.9800   15.7380  -29.0250 O.3  4428  WAT4428    -0.4105
  13280  H1       -17.6500   14.8700  -29.2570 H    4428  WAT4428     0.2052
  13281  H2       -17.5510   15.9430  -28.1940 H    4428  WAT4428     0.2052
  13282  O        -17.4910   16.6050  -26.2870 O.3  4429  WAT4429    -0.4105
  13283  H1       -17.9280   16.7850  -25.4540 H    4429  WAT4429     0.2052
  13284  H2       -16.9230   17.3620  -26.4290 H    4429  WAT4429     0.2052
  13285  O         -1.8550   16.1060  -21.9990 O.3  4430  WAT4430    -0.4105
  13286  H1        -2.4550   16.1660  -22.7430 H    4430  WAT4430     0.2052
  13287  H2        -1.7250   15.1670  -21.8690 H    4430  WAT4430     0.2052
  13288  O         -0.1530   11.4480  -29.3140 O.3  4431  WAT4431    -0.4105
  13289  H1         0.2180   10.6650  -29.7210 H    4431  WAT4431     0.2052
  13290  H2         0.4870   12.1370  -29.4930 H    4431  WAT4431     0.2052
  13291  O         -3.1700   12.8320  -23.9010 O.3  4432  WAT4432    -0.4105
  13292  H1        -3.9840   13.2610  -23.6390 H    4432  WAT4432     0.2052
  13293  H2        -2.7620   13.4430  -24.5150 H    4432  WAT4432     0.2052
  13294  O        -16.6210    9.5020  -25.3880 O.3  4433  WAT4433    -0.4105
  13295  H1       -16.2540    9.4150  -24.5080 H    4433  WAT4433     0.2052
  13296  H2       -17.1900    8.7390  -25.4870 H    4433  WAT4433     0.2052
  13297  O         -1.8210    7.9700  -22.3750 O.3  4434  WAT4434    -0.4105
  13298  H1        -2.0520    7.7420  -23.2750 H    4434  WAT4434     0.2052
  13299  H2        -1.5600    8.8900  -22.4200 H    4434  WAT4434     0.2052
  13300  O        -17.0690    6.4130  -21.4820 O.3  4435  WAT4435    -0.4105
  13301  H1       -17.9640    6.3800  -21.1420 H    4435  WAT4435     0.2052
  13302  H2       -16.5300    6.6120  -20.7170 H    4435  WAT4435     0.2052
  13303  O         -3.3820    3.1960  -19.5970 O.3  4436  WAT4436    -0.4105
  13304  H1        -2.5050    3.2040  -19.2130 H    4436  WAT4436     0.2052
  13305  H2        -3.3700    2.4590  -20.2070 H    4436  WAT4436     0.2052
  13306  O         -1.9350    7.0490  -28.7080 O.3  4437  WAT4437    -0.4105
  13307  H1        -1.4120    6.5550  -29.3390 H    4437  WAT4437     0.2052
  13308  H2        -1.3490    7.1840  -27.9630 H    4437  WAT4437     0.2052
  13309  O         -1.7560    7.1330  -25.1860 O.3  4438  WAT4438    -0.4105
  13310  H1        -2.7060    7.0990  -25.0710 H    4438  WAT4438     0.2052
  13311  H2        -1.5750    8.0430  -25.4210 H    4438  WAT4438     0.2052
  13312  O        -16.5650    0.6880  -27.1330 O.3  4439  WAT4439    -0.4105
  13313  H1       -15.9180    0.1370  -27.5740 H    4439  WAT4439     0.2052
  13314  H2       -16.1450    0.9420  -26.3120 H    4439  WAT4439     0.2052
  13315  O         -2.6700    0.8820  -23.7760 O.3  4440  WAT4440    -0.4105
  13316  H1        -2.0330    1.4950  -23.4110 H    4440  WAT4440     0.2052
  13317  H2        -2.5230    0.9180  -24.7220 H    4440  WAT4440     0.2052
  13318  O        -16.8120    0.8430  -24.3910 O.3  4441  WAT4441    -0.4105
  13319  H1       -17.1610    1.3000  -23.6250 H    4441  WAT4441     0.2052
  13320  H2       -17.1430   -0.0510  -24.3090 H    4441  WAT4441     0.2052
  13321  O        -15.2060   14.0150  -20.2260 O.3  4442  WAT4442    -0.4105
  13322  H1       -15.2490   13.6440  -19.3440 H    4442  WAT4442     0.2052
  13323  H2       -15.0750   14.9530  -20.0850 H    4442  WAT4442     0.2052
  13324  O        -11.5050   15.5710  -24.6250 O.3  4443  WAT4443    -0.4105
  13325  H1       -11.7460   15.8390  -25.5120 H    4443  WAT4443     0.2052
  13326  H2       -10.5650   15.7420  -24.5690 H    4443  WAT4443     0.2052
  13327  O         -9.3000    2.0340  -20.8690 O.3  4444  WAT4444    -0.4105
  13328  H1        -9.3610    2.6270  -20.1190 H    4444  WAT4444     0.2052
  13329  H2        -8.3600    1.9270  -21.0140 H    4444  WAT4444     0.2052
  13330  O         -6.6620    1.6910  -21.2300 O.3  4445  WAT4445    -0.4105
  13331  H1        -6.0480    2.0090  -21.8920 H    4445  WAT4445     0.2052
  13332  H2        -6.1170    1.2060  -20.6100 H    4445  WAT4445     0.2052
  13333  O         -0.2450   17.5910  -23.8240 O.3  4446  WAT4446    -0.4105
  13334  H1        -0.7390   17.9870  -24.5410 H    4446  WAT4446     0.2052
  13335  H2        -0.8530   16.9660  -23.4300 H    4446  WAT4446     0.2052
  13336  O        -16.1400    0.3710  -21.1160 O.3  4447  WAT4447    -0.4105
  13337  H1       -15.5920    0.1900  -21.8790 H    4447  WAT4447     0.2052
  13338  H2       -16.0750   -0.4200  -20.5800 H    4447  WAT4447     0.2052
  13339  O        -15.3670   16.9610  -23.1060 O.3  4448  WAT4448    -0.4105
  13340  H1       -15.9610   16.8300  -22.3670 H    4448  WAT4448     0.2052
  13341  H2       -15.3750   16.1250  -23.5720 H    4448  WAT4448     0.2052
  13342  O         -5.9210    0.2550  -24.9030 O.3  4449  WAT4449    -0.4105
  13343  H1        -6.7950    0.5880  -25.1050 H    4449  WAT4449     0.2052
  13344  H2        -6.0300   -0.2180  -24.0780 H    4449  WAT4449     0.2052
  13345  O         -5.0140    2.4620  -23.5190 O.3  4450  WAT4450    -0.4105
  13346  H1        -5.3430    1.6470  -23.8980 H    4450  WAT4450     0.2052
  13347  H2        -4.0660    2.4190  -23.6420 H    4450  WAT4450     0.2052
  13348  O         -2.5610   18.2330  -26.5450 O.3  4451  WAT4451    -0.4105
  13349  H1        -3.0200   18.9850  -26.9190 H    4451  WAT4451     0.2052
  13350  H2        -3.1890   17.5140  -26.6030 H    4451  WAT4451     0.2052
  13351  O        -15.7360   14.3270  -24.1550 O.3  4452  WAT4452    -0.4105
  13352  H1       -16.4620   13.7080  -24.2220 H    4452  WAT4452     0.2052
  13353  H2       -15.6750   14.7210  -25.0250 H    4452  WAT4452     0.2052
  13354  O        -12.1310   16.5420  -27.3700 O.3  4453  WAT4453    -0.4105
  13355  H1       -11.6150   15.9300  -27.8950 H    4453  WAT4453     0.2052
  13356  H2       -11.4810   17.0450  -26.8790 H    4453  WAT4453     0.2052
  13357  O         -9.3920   17.4330  -26.5430 O.3  4454  WAT4454    -0.4105
  13358  H1        -9.1040   17.1780  -27.4200 H    4454  WAT4454     0.2052
  13359  H2        -8.8790   16.8800  -25.9530 H    4454  WAT4454     0.2052
  13360  O         -8.1740    1.1720  -25.9630 O.3  4455  WAT4455    -0.4105
  13361  H1        -8.9570    1.6460  -25.6840 H    4455  WAT4455     0.2052
  13362  H2        -8.4680    0.2670  -26.0720 H    4455  WAT4455     0.2052
  13363  O         -3.6220    1.8740  -27.9190 O.3  4456  WAT4456    -0.4105
  13364  H1        -3.1810    1.8180  -28.7660 H    4456  WAT4456     0.2052
  13365  H2        -3.8910    2.7900  -27.8480 H    4456  WAT4456     0.2052
  13366  O         -5.7860    0.2550  -29.2140 O.3  4457  WAT4457    -0.4105
  13367  H1        -5.1830    0.8270  -28.7390 H    4457  WAT4457     0.2052
  13368  H2        -6.5270    0.8180  -29.4360 H    4457  WAT4457     0.2052
  13369  O         -9.3240   18.3540  -19.1760 O.3  4458  WAT4458    -0.4105
  13370  H1        -8.3980   18.1190  -19.1330 H    4458  WAT4458     0.2052
  13371  H2        -9.3390   19.1810  -19.6580 H    4458  WAT4458     0.2052
  13372  O        -12.1380    1.0190  -19.4120 O.3  4459  WAT4459    -0.4105
  13373  H1       -12.4200    1.5220  -20.1760 H    4459  WAT4459     0.2052
  13374  H2       -11.7560    0.2210  -19.7780 H    4459  WAT4459     0.2052
  13375  O         -5.5360    0.4340  -18.8340 O.3  4460  WAT4460    -0.4105
  13376  H1        -5.6500    0.7540  -17.9390 H    4460  WAT4460     0.2052
  13377  H2        -4.7200    0.8350  -19.1300 H    4460  WAT4460     0.2052
  13378  O         -2.7570   17.5810  -19.3520 O.3  4461  WAT4461    -0.4105
  13379  H1        -1.9640   17.0860  -19.5600 H    4461  WAT4461     0.2052
  13380  H2        -2.4630   18.2600  -18.7450 H    4461  WAT4461     0.2052
  13381  O         -6.6310  -10.3210   26.6270 O.3  4462  WAT4462    -0.4105
  13382  H1        -6.7110  -11.2360   26.3560 H    4462  WAT4462     0.2052
  13383  H2        -7.0440   -9.8240   25.9210 H    4462  WAT4462     0.2052
  13384  O         -8.4990   -8.5430   28.5080 O.3  4463  WAT4463    -0.4105
  13385  H1        -9.2750   -9.0230   28.7980 H    4463  WAT4463     0.2052
  13386  H2        -7.8480   -9.2230   28.3330 H    4463  WAT4463     0.2052
  13387  O         -4.4780   -4.1370   27.2880 O.3  4464  WAT4464    -0.4105
  13388  H1        -4.9400   -4.9080   27.6160 H    4464  WAT4464     0.2052
  13389  H2        -3.6660   -4.1110   27.7930 H    4464  WAT4464     0.2052
  13390  O        -14.5020   -4.1970   29.5810 O.3  4465  WAT4465    -0.4105
  13391  H1       -14.1990   -5.0870   29.4020 H    4465  WAT4465     0.2052
  13392  H2       -13.7580   -3.6400   29.3530 H    4465  WAT4465     0.2052
  13393  O        -16.0730  -13.2710   23.1700 O.3  4466  WAT4466    -0.4105
  13394  H1       -16.9610  -12.9290   23.0680 H    4466  WAT4466     0.2052
  13395  H2       -15.7890  -13.4710   22.2780 H    4466  WAT4466     0.2052
  13396  O        -18.1100  -10.6700   29.0540 O.3  4467  WAT4467    -0.4105
  13397  H1       -17.5380  -11.4380   29.0540 H    4467  WAT4467     0.2052
  13398  H2       -18.1100  -10.3720   28.1440 H    4467  WAT4467     0.2052
  13399  O         -8.2520   -1.8510   26.9080 O.3  4468  WAT4468    -0.4105
  13400  H1        -8.8710   -1.3960   26.3370 H    4468  WAT4468     0.2052
  13401  H2        -7.3970   -1.6960   26.5070 H    4468  WAT4468     0.2052
  13402  O         -9.0580   -5.8670   28.5150 O.3  4469  WAT4469    -0.4105
  13403  H1        -9.1270   -6.8080   28.3540 H    4469  WAT4469     0.2052
  13404  H2        -8.2960   -5.7770   29.0870 H    4469  WAT4469     0.2052
  13405  O         -8.0270  -13.0600   28.7420 O.3  4470  WAT4470    -0.4105
  13406  H1        -7.6510  -13.9330   28.6290 H    4470  WAT4470     0.2052
  13407  H2        -8.1250  -12.7250   27.8510 H    4470  WAT4470     0.2052
  13408  O        -13.8970  -14.6880   24.2030 O.3  4471  WAT4471    -0.4105
  13409  H1       -13.7900  -13.7870   24.5100 H    4471  WAT4471     0.2052
  13410  H2       -14.8080  -14.7360   23.9130 H    4471  WAT4471     0.2052
  13411  O         -4.2450  -15.5650   25.6740 O.3  4472  WAT4472    -0.4105
  13412  H1        -3.4240  -16.0560   25.7170 H    4472  WAT4472     0.2052
  13413  H2        -4.2120  -14.9760   26.4280 H    4472  WAT4472     0.2052
  13414  O        -16.2490  -12.7660   29.4490 O.3  4473  WAT4473    -0.4105
  13415  H1       -15.5680  -12.5020   30.0670 H    4473  WAT4473     0.2052
  13416  H2       -16.5640  -13.6060   29.7820 H    4473  WAT4473     0.2052
  13417  O        -12.0560  -11.7190   28.5360 O.3  4474  WAT4474    -0.4105
  13418  H1       -11.5480  -11.2210   29.1760 H    4474  WAT4474     0.2052
  13419  H2       -11.5250  -12.4960   28.3600 H    4474  WAT4474     0.2052
  13420  O         -7.3850   -6.9670   24.3010 O.3  4475  WAT4475    -0.4105
  13421  H1        -8.0040   -6.5020   23.7380 H    4475  WAT4475     0.2052
  13422  H2        -6.8730   -6.2750   24.7180 H    4475  WAT4475     0.2052
  13423  O         -4.0090  -13.6250   28.4470 O.3  4476  WAT4476    -0.4105
  13424  H1        -4.7130  -13.3370   29.0280 H    4476  WAT4476     0.2052
  13425  H2        -3.6480  -12.8150   28.0870 H    4476  WAT4476     0.2052
  13426  O        -18.0170   -6.2820   21.6750 O.3  4477  WAT4477    -0.4105
  13427  H1       -18.3940   -5.7930   20.9440 H    4477  WAT4477     0.2052
  13428  H2       -17.7600   -5.6090   22.3060 H    4477  WAT4477     0.2052
  13429  O         -0.9400  -14.1800   28.8380 O.3  4478  WAT4478    -0.4105
  13430  H1        -1.8880  -14.1460   28.9700 H    4478  WAT4478     0.2052
  13431  H2        -0.6150  -13.3660   29.2230 H    4478  WAT4478     0.2052
  13432  O        -10.4080  -17.8800   27.1340 O.3  4479  WAT4479    -0.4105
  13433  H1       -10.1010  -18.4350   26.4170 H    4479  WAT4479     0.2052
  13434  H2       -11.3380  -17.7460   26.9510 H    4479  WAT4479     0.2052
  13435  O         -4.8570   -2.1630   29.4240 O.3  4480  WAT4480    -0.4105
  13436  H1        -4.8440   -2.5670   28.5570 H    4480  WAT4480     0.2052
  13437  H2        -5.4090   -1.3890   29.3210 H    4480  WAT4480     0.2052
  13438  O         -3.5620   -5.4420   24.5140 O.3  4481  WAT4481    -0.4105
  13439  H1        -3.6730   -6.3840   24.6380 H    4481  WAT4481     0.2052
  13440  H2        -3.5650   -5.0800   25.4000 H    4481  WAT4481     0.2052
  13441  O         -8.0200   -9.8150   23.8700 O.3  4482  WAT4482    -0.4105
  13442  H1        -8.9470   -9.8810   24.0990 H    4482  WAT4482     0.2052
  13443  H2        -7.8680   -8.8770   23.7550 H    4482  WAT4482     0.2052
  13444  O         -8.0330  -13.5440   20.8660 O.3  4483  WAT4483    -0.4105
  13445  H1        -8.9730  -13.3820   20.9520 H    4483  WAT4483     0.2052
  13446  H2        -7.7150  -12.8250   20.3200 H    4483  WAT4483     0.2052
  13447  O         -3.9900   -8.2530   24.3730 O.3  4484  WAT4484    -0.4105
  13448  H1        -4.6090   -8.5910   23.7260 H    4484  WAT4484     0.2052
  13449  H2        -4.0080   -8.8970   25.0810 H    4484  WAT4484     0.2052
  13450  O        -12.4140   -9.2890   26.6520 O.3  4485  WAT4485    -0.4105
  13451  H1       -12.8190  -10.0010   26.1560 H    4485  WAT4485     0.2052
  13452  H2       -12.3280   -9.6330   27.5410 H    4485  WAT4485     0.2052
  13453  O        -11.9460   -5.6020   28.8160 O.3  4486  WAT4486    -0.4105
  13454  H1       -12.2430   -6.2070   28.1360 H    4486  WAT4486     0.2052
  13455  H2       -10.9960   -5.5640   28.7050 H    4486  WAT4486     0.2052
  13456  O         -5.8140   -9.0150   21.3810 O.3  4487  WAT4487    -0.4105
  13457  H1        -5.3750   -9.8520   21.2340 H    4487  WAT4487     0.2052
  13458  H2        -5.1010   -8.3820   21.4670 H    4487  WAT4487     0.2052
  13459  O         -7.7040   -4.0750   25.3490 O.3  4488  WAT4488    -0.4105
  13460  H1        -7.2650   -3.3320   24.9340 H    4488  WAT4488     0.2052
  13461  H2        -7.7660   -3.8320   26.2730 H    4488  WAT4488     0.2052
  13462  O         -2.2320  -17.7600   19.6950 O.3  4489  WAT4489    -0.4105
  13463  H1        -2.5450  -17.6680   20.5950 H    4489  WAT4489     0.2052
  13464  H2        -1.4710  -17.1820   19.6440 H    4489  WAT4489     0.2052
  13465  O        -15.7140  -10.3940   24.1520 O.3  4490  WAT4490    -0.4105
  13466  H1       -15.8340   -9.6680   23.5410 H    4490  WAT4490     0.2052
  13467  H2       -16.0240  -11.1640   23.6750 H    4490  WAT4490     0.2052
  13468  O        -16.8310   -5.5230   26.3700 O.3  4491  WAT4491    -0.4105
  13469  H1       -17.2380   -5.3810   25.5150 H    4491  WAT4491     0.2052
  13470  H2       -15.9390   -5.8070   26.1670 H    4491  WAT4491     0.2052
  13471  O         -5.0370   -1.0880   22.7050 O.3  4492  WAT4492    -0.4105
  13472  H1        -5.1970   -1.3780   23.6030 H    4492  WAT4492     0.2052
  13473  H2        -5.2030   -1.8640   22.1700 H    4492  WAT4492     0.2052
  13474  O        -12.5590   -1.3080   24.4820 O.3  4493  WAT4493    -0.4105
  13475  H1       -12.7340   -2.2250   24.2690 H    4493  WAT4493     0.2052
  13476  H2       -13.4130   -0.9490   24.7220 H    4493  WAT4493     0.2052
  13477  O         -5.3350   -3.5790   21.2650 O.3  4494  WAT4494    -0.4105
  13478  H1        -6.0280   -3.5820   20.6050 H    4494  WAT4494     0.2052
  13479  H2        -4.5930   -4.0030   20.8340 H    4494  WAT4494     0.2052
  13480  O         -5.7700   -1.9530   25.3400 O.3  4495  WAT4495    -0.4105
  13481  H1        -5.3140   -2.7340   25.6530 H    4495  WAT4495     0.2052
  13482  H2        -5.4310   -1.2420   25.8840 H    4495  WAT4495     0.2052
  13483  O        -13.2480  -17.0510   27.5350 O.3  4496  WAT4496    -0.4105
  13484  H1       -13.6910  -16.2700   27.2030 H    4496  WAT4496     0.2052
  13485  H2       -12.6890  -16.7280   28.2420 H    4496  WAT4496     0.2052
  13486  O        -10.1320  -17.4300   22.4150 O.3  4497  WAT4497    -0.4105
  13487  H1       -10.7560  -17.4340   23.1410 H    4497  WAT4497     0.2052
  13488  H2       -10.2190  -18.2970   22.0190 H    4497  WAT4497     0.2052
  13489  O        -11.2100  -16.5060   29.3940 O.3  4498  WAT4498    -0.4105
  13490  H1       -10.9130  -15.6000   29.3130 H    4498  WAT4498     0.2052
  13491  H2       -10.6620  -16.9940   28.7800 H    4498  WAT4498     0.2052
  13492  O        -13.4560  -11.9270   25.2630 O.3  4499  WAT4499    -0.4105
  13493  H1       -13.6820  -12.1440   26.1680 H    4499  WAT4499     0.2052
  13494  H2       -14.2370  -11.4950   24.9170 H    4499  WAT4499     0.2052
  13495  O         -6.2260  -11.9210   23.8620 O.3  4500  WAT4500    -0.4105
  13496  H1        -6.8260  -11.1970   23.6780 H    4500  WAT4500     0.2052
  13497  H2        -5.6790  -11.9830   23.0800 H    4500  WAT4500     0.2052
  13498  O         -7.6200  -13.2850   25.8920 O.3  4501  WAT4501    -0.4105
  13499  H1        -7.2270  -12.9670   25.0790 H    4501  WAT4501     0.2052
  13500  H2        -7.2580  -14.1640   26.0070 H    4501  WAT4501     0.2052
  13501  O        -18.5840  -16.6950   28.1150 O.3  4502  WAT4502    -0.4105
  13502  H1       -18.8720  -16.1240   28.8280 H    4502  WAT4502     0.2052
  13503  H2       -17.8390  -17.1740   28.4780 H    4502  WAT4502     0.2052
  13504  O        -18.3970  -12.7530   19.3260 O.3  4503  WAT4503    -0.4105
  13505  H1       -18.4790  -11.8100   19.4670 H    4503  WAT4503     0.2052
  13506  H2       -18.7480  -12.8950   18.4470 H    4503  WAT4503     0.2052
  13507  O        -10.5970  -14.0190   28.3930 O.3  4504  WAT4504    -0.4105
  13508  H1       -10.5930  -14.4600   27.5430 H    4504  WAT4504     0.2052
  13509  H2        -9.7020  -13.6970   28.5000 H    4504  WAT4504     0.2052
  13510  O        -14.7460  -14.1360   27.3520 O.3  4505  WAT4505    -0.4105
  13511  H1       -15.0860  -13.6590   28.1090 H    4505  WAT4505     0.2052
  13512  H2       -15.5090  -14.5900   26.9920 H    4505  WAT4505     0.2052
  13513  O        -10.5350  -13.0170   21.3830 O.3  4506  WAT4506    -0.4105
  13514  H1       -10.4130  -13.0590   22.3320 H    4506  WAT4506     0.2052
  13515  H2       -10.9200  -12.1550   21.2280 H    4506  WAT4506     0.2052
  13516  O        -11.5230  -10.7070   20.7820 O.3  4507  WAT4507    -0.4105
  13517  H1       -12.0910  -11.1560   20.1550 H    4507  WAT4507     0.2052
  13518  H2       -10.8140  -10.3480   20.2480 H    4507  WAT4507     0.2052
  13519  O        -17.4320  -15.2140   26.2680 O.3  4508  WAT4508    -0.4105
  13520  H1       -17.7170  -15.5790   27.1060 H    4508  WAT4508     0.2052
  13521  H2       -17.4940  -15.9460   25.6550 H    4508  WAT4508     0.2052
  13522  O        -13.9780   -6.7120   23.0540 O.3  4509  WAT4509    -0.4105
  13523  H1       -14.7520   -7.2520   22.8940 H    4509  WAT4509     0.2052
  13524  H2       -13.2480   -7.2310   22.7160 H    4509  WAT4509     0.2052
  13525  O         -3.2190   -7.7150   28.8470 O.3  4510  WAT4510    -0.4105
  13526  H1        -2.4990   -7.2190   28.4570 H    4510  WAT4510     0.2052
  13527  H2        -3.4210   -8.3930   28.2020 H    4510  WAT4510     0.2052
  13528  O         -7.7580  -16.3210   22.9900 O.3  4511  WAT4511    -0.4105
  13529  H1        -8.5720  -16.8200   22.9140 H    4511  WAT4511     0.2052
  13530  H2        -7.9520  -15.4810   22.5730 H    4511  WAT4511     0.2052
  13531  O         -5.0430  -11.9490   21.2860 O.3  4512  WAT4512    -0.4105
  13532  H1        -4.1550  -11.6380   21.1110 H    4512  WAT4512     0.2052
  13533  H2        -5.0730  -12.8220   20.8940 H    4512  WAT4512     0.2052
  13534  O        -13.9340   -7.0440   26.6920 O.3  4513  WAT4513    -0.4105
  13535  H1       -13.4160   -7.8470   26.6380 H    4513  WAT4513     0.2052
  13536  H2       -14.3860   -7.1060   27.5340 H    4513  WAT4513     0.2052
  13537  O         -9.0470   -5.7770   21.9650 O.3  4514  WAT4514    -0.4105
  13538  H1        -8.7060   -5.0330   21.4690 H    4514  WAT4514     0.2052
  13539  H2        -9.8760   -5.4640   22.3270 H    4514  WAT4514     0.2052
  13540  O         -2.7720  -10.6380   20.7540 O.3  4515  WAT4515    -0.4105
  13541  H1        -2.8550  -10.2070   19.9040 H    4515  WAT4515     0.2052
  13542  H2        -2.0520  -10.1780   21.1870 H    4515  WAT4515     0.2052
  13543  O         -1.7430   -3.7840   23.4820 O.3  4516  WAT4516    -0.4105
  13544  H1        -2.3850   -4.4380   23.7570 H    4516  WAT4516     0.2052
  13545  H2        -2.1300   -3.3780   22.7060 H    4516  WAT4516     0.2052
  13546  O         -6.1640   -6.4550   27.3290 O.3  4517  WAT4517    -0.4105
  13547  H1        -5.8120   -7.0530   26.6700 H    4517  WAT4517     0.2052
  13548  H2        -7.0480   -6.7810   27.5000 H    4517  WAT4517     0.2052
  13549  O        -10.0780   -5.6960   24.7360 O.3  4518  WAT4518    -0.4105
  13550  H1        -9.3910   -5.1490   25.1170 H    4518  WAT4518     0.2052
  13551  H2       -10.8650   -5.1510   24.7710 H    4518  WAT4518     0.2052
  13552  O        -17.9390  -10.0780   20.2280 O.3  4519  WAT4519    -0.4105
  13553  H1       -17.0690   -9.7960   20.5120 H    4519  WAT4519     0.2052
  13554  H2       -18.4300   -9.2650   20.1130 H    4519  WAT4519     0.2052
  13555  O        -10.7750   -8.6910   24.3490 O.3  4520  WAT4520    -0.4105
  13556  H1       -10.3190   -7.8800   24.5750 H    4520  WAT4520     0.2052
  13557  H2       -11.1270   -9.0090   25.1810 H    4520  WAT4520     0.2052
  13558  O        -14.8740  -18.3470   24.8210 O.3  4521  WAT4521    -0.4105
  13559  H1       -15.0030  -18.3550   25.7700 H    4521  WAT4521     0.2052
  13560  H2       -15.6980  -18.0090   24.4700 H    4521  WAT4521     0.2052
  13561  O         -3.3530   -4.8920   20.0200 O.3  4522  WAT4522    -0.4105
  13562  H1        -3.5800   -5.6090   20.6120 H    4522  WAT4522     0.2052
  13563  H2        -3.7440   -5.1410   19.1820 H    4522  WAT4522     0.2052
  13564  O        -17.5720   -0.8660   20.7940 O.3  4523  WAT4523    -0.4105
  13565  H1       -17.2120   -0.2670   20.1400 H    4523  WAT4523     0.2052
  13566  H2       -17.7120   -0.3200   21.5680 H    4523  WAT4523     0.2052
  13567  O         -3.7720   -6.9750   21.6810 O.3  4524  WAT4524    -0.4105
  13568  H1        -4.0600   -6.5140   22.4690 H    4524  WAT4524     0.2052
  13569  H2        -2.9760   -7.4350   21.9500 H    4524  WAT4524     0.2052
  13570  O        -11.5550   -3.4820   21.6120 O.3  4525  WAT4525    -0.4105
  13571  H1       -11.5640   -2.7490   20.9960 H    4525  WAT4525     0.2052
  13572  H2       -12.4750   -3.7290   21.7040 H    4525  WAT4525     0.2052
  13573  O        -15.9540   -8.2610   22.3560 O.3  4526  WAT4526    -0.4105
  13574  H1       -16.5610   -7.5210   22.3660 H    4526  WAT4526     0.2052
  13575  H2       -15.4790   -8.1710   21.5300 H    4526  WAT4526     0.2052
  13576  O         -3.0150  -15.1400   22.8410 O.3  4527  WAT4527    -0.4105
  13577  H1        -3.6430  -15.0360   22.1270 H    4527  WAT4527     0.2052
  13578  H2        -3.5090  -14.9200   23.6300 H    4527  WAT4527     0.2052
  13579  O         -8.5690   -3.4200   20.2740 O.3  4528  WAT4528    -0.4105
  13580  H1        -8.4680   -3.6230   19.3440 H    4528  WAT4528     0.2052
  13581  H2        -9.4690   -3.6740   20.4790 H    4528  WAT4528     0.2052
  13582  O        -11.0460  -12.8620   24.2570 O.3  4529  WAT4529    -0.4105
  13583  H1       -11.7550  -12.3930   24.6980 H    4529  WAT4529     0.2052
  13584  H2       -10.7620  -13.5190   24.8910 H    4529  WAT4529     0.2052
  13585  O         -7.0150  -16.1360   25.6960 O.3  4530  WAT4530    -0.4105
  13586  H1        -7.1380  -16.1180   24.7470 H    4530  WAT4530     0.2052
  13587  H2        -6.0660  -16.0890   25.8160 H    4530  WAT4530     0.2052
  13588  O         -9.9270   -0.9010   24.9690 O.3  4531  WAT4531    -0.4105
  13589  H1        -9.6730   -0.9390   24.0470 H    4531  WAT4531     0.2052
  13590  H2       -10.8760   -1.0280   24.9620 H    4531  WAT4531     0.2052
  13591  O        -12.8430  -14.5530   21.6320 O.3  4532  WAT4532    -0.4105
  13592  H1       -11.9940  -14.1160   21.5660 H    4532  WAT4532     0.2052
  13593  H2       -13.2100  -14.2410   22.4590 H    4532  WAT4532     0.2052
  13594  O         -3.9220   -9.9820   26.5450 O.3  4533  WAT4533    -0.4105
  13595  H1        -4.8630   -9.9670   26.7200 H    4533  WAT4533     0.2052
  13596  H2        -3.6070  -10.7680   26.9910 H    4533  WAT4533     0.2052
  13597  O        -13.9440   -8.3000   20.1050 O.3  4534  WAT4534    -0.4105
  13598  H1       -13.1770   -8.4120   20.6680 H    4534  WAT4534     0.2052
  13599  H2       -13.8660   -8.9960   19.4530 H    4534  WAT4534     0.2052
  13600  O        -15.2490  -10.8670   20.7890 O.3  4535  WAT4535    -0.4105
  13601  H1       -15.1690  -11.8150   20.9000 H    4535  WAT4535     0.2052
  13602  H2       -14.3570  -10.5370   20.8950 H    4535  WAT4535     0.2052
  13603  O         -1.9190   -2.8110   28.2200 O.3  4536  WAT4536    -0.4105
  13604  H1        -1.7950   -1.9880   28.6930 H    4536  WAT4536     0.2052
  13605  H2        -1.0530   -3.0220   27.8730 H    4536  WAT4536     0.2052
  13606  O        -14.4470   -0.7180   27.8920 O.3  4537  WAT4537    -0.4105
  13607  H1       -13.7110   -1.2660   28.1630 H    4537  WAT4537     0.2052
  13608  H2       -14.0630    0.1480   27.7530 H    4537  WAT4537     0.2052
  13609  O        -17.5630   -4.6500   23.7660 O.3  4538  WAT4538    -0.4105
  13610  H1       -18.4890   -4.4080   23.7570 H    4538  WAT4538     0.2052
  13611  H2       -17.0970   -3.8230   23.6450 H    4538  WAT4538     0.2052
  13612  O        -11.3370   -1.5450   19.7150 O.3  4539  WAT4539    -0.4105
  13613  H1       -10.5440   -1.2560   19.2630 H    4539  WAT4539     0.2052
  13614  H2       -11.8570   -1.9760   19.0360 H    4539  WAT4539     0.2052
  13615  O         -2.2840   -2.3180   21.1380 O.3  4540  WAT4540    -0.4105
  13616  H1        -2.5700   -2.7310   20.3240 H    4540  WAT4540     0.2052
  13617  H2        -2.4820   -1.3890   21.0180 H    4540  WAT4540     0.2052
  13618  O        -10.8200   -6.3240   19.5790 O.3  4541  WAT4541    -0.4105
  13619  H1       -10.9240   -6.9390   20.3050 H    4541  WAT4541     0.2052
  13620  H2       -10.9870   -6.8480   18.7950 H    4541  WAT4541     0.2052
  13621  O         -7.5790   -7.2620   20.1830 O.3  4542  WAT4542    -0.4105
  13622  H1        -8.1280   -6.8150   20.8270 H    4542  WAT4542     0.2052
  13623  H2        -6.9570   -7.7670   20.7070 H    4542  WAT4542     0.2052
  13624  O        -11.9120   -8.3030   22.0790 O.3  4543  WAT4543    -0.4105
  13625  H1       -11.4900   -8.4690   22.9230 H    4543  WAT4543     0.2052
  13626  H2       -11.7870   -9.1130   21.5850 H    4543  WAT4543     0.2052
  13627  O         -9.3990   -9.2800   19.3270 O.3  4544  WAT4544    -0.4105
  13628  H1        -8.8780   -9.9950   18.9610 H    4544  WAT4544     0.2052
  13629  H2        -8.7520   -8.6410   19.6270 H    4544  WAT4544     0.2052
  13630  O        -13.0160  -12.2300   19.0250 O.3  4545  WAT4545    -0.4105
  13631  H1       -13.2170  -13.0930   19.3870 H    4545  WAT4545     0.2052
  13632  H2       -13.1870  -12.3170   18.0870 H    4545  WAT4545     0.2052
  13633  O         -5.5370  -17.4190   21.5540 O.3  4546  WAT4546    -0.4105
  13634  H1        -5.2570  -18.2620   21.9100 H    4546  WAT4546     0.2052
  13635  H2        -6.3100  -17.1870   22.0680 H    4546  WAT4546     0.2052
  13636  O        -14.2180  -15.1300   19.0130 O.3  4547  WAT4547    -0.4105
  13637  H1       -13.9150  -15.1230   18.1050 H    4547  WAT4547     0.2052
  13638  H2       -13.4780  -15.4800   19.5100 H    4547  WAT4547     0.2052
  13639  O        -10.9990  -16.1860   19.9990 O.3  4548  WAT4548    -0.4105
  13640  H1       -11.3470  -16.8640   19.4190 H    4548  WAT4548     0.2052
  13641  H2       -10.7980  -16.6470   20.8130 H    4548  WAT4548     0.2052
  13642  O         -8.8340   -1.1980   21.6170 O.3  4549  WAT4549    -0.4105
  13643  H1        -7.9390   -0.8600   21.6390 H    4549  WAT4549     0.2052
  13644  H2        -8.8020   -1.9200   20.9900 H    4549  WAT4549     0.2052
  13645  O        -15.1950   -5.8260   19.8460 O.3  4550  WAT4550    -0.4105
  13646  H1       -14.7570   -5.2830   20.5020 H    4550  WAT4550     0.2052
  13647  H2       -14.7100   -6.6510   19.8560 H    4550  WAT4550     0.2052
  13648  O        -17.9800   -3.0370   27.2980 O.3  4551  WAT4551    -0.4105
  13649  H1       -17.6500   -3.9050   27.0660 H    4551  WAT4551     0.2052
  13650  H2       -17.5510   -2.8310   28.1290 H    4551  WAT4551     0.2052
  13651  O        -13.3840   -4.7060   24.9580 O.3  4552  WAT4552    -0.4105
  13652  H1       -13.6840   -4.8290   25.8590 H    4552  WAT4552     0.2052
  13653  H2       -13.4900   -5.5650   24.5500 H    4552  WAT4552     0.2052
  13654  O         -0.6150   -4.9260   19.6610 O.3  4553  WAT4553    -0.4105
  13655  H1        -1.4450   -4.8590   20.1320 H    4553  WAT4553     0.2052
  13656  H2        -0.4370   -4.0360   19.3580 H    4553  WAT4553     0.2052
  13657  O         -1.1590   -8.1810   22.1640 O.3  4554  WAT4554    -0.4105
  13658  H1        -0.3970   -7.6120   22.2700 H    4554  WAT4554     0.2052
  13659  H2        -1.1440   -8.7490   22.9350 H    4554  WAT4554     0.2052
  13660  O        -17.6590   -9.6580   26.3950 O.3  4555  WAT4555    -0.4105
  13661  H1       -18.3140   -9.9270   25.7510 H    4555  WAT4555     0.2052
  13662  H2       -16.8210   -9.7670   25.9450 H    4555  WAT4555     0.2052
  13663  O         -0.1530   -7.3260   27.0090 O.3  4556  WAT4556    -0.4105
  13664  H1         0.2180   -8.1100   26.6020 H    4556  WAT4556     0.2052
  13665  H2         0.4870   -6.6380   26.8300 H    4556  WAT4556     0.2052
  13666  O         -1.1070   -7.8880   19.3220 O.3  4557  WAT4557    -0.4105
  13667  H1        -0.8320   -6.9800   19.1940 H    4557  WAT4557     0.2052
  13668  H2        -1.2960   -7.9520   20.2580 H    4557  WAT4557     0.2052
  13669  O         -4.7090  -14.8640   20.6170 O.3  4558  WAT4558    -0.4105
  13670  H1        -4.2910  -15.0500   19.7770 H    4558  WAT4558     0.2052
  13671  H2        -5.0160  -15.7160   20.9270 H    4558  WAT4558     0.2052
  13672  O         -1.2100   -9.9510   24.3150 O.3  4559  WAT4559    -0.4105
  13673  H1        -1.5860  -10.7180   23.8830 H    4559  WAT4559     0.2052
  13674  H2        -1.9400   -9.5690   24.8020 H    4559  WAT4559     0.2052
  13675  O        -18.4450  -12.4480   22.3380 O.3  4560  WAT4560    -0.4105
  13676  H1       -19.3480  -12.1850   22.1630 H    4560  WAT4560     0.2052
  13677  H2       -17.9610  -12.1770   21.5580 H    4560  WAT4560     0.2052
  13678  O         -1.9350  -11.7250   27.6150 O.3  4561  WAT4561    -0.4105
  13679  H1        -1.4120  -12.2190   26.9840 H    4561  WAT4561     0.2052
  13680  H2        -1.3490  -11.5900   28.3600 H    4561  WAT4561     0.2052
  13681  O        -15.9020  -13.3910   20.2470 O.3  4562  WAT4562    -0.4105
  13682  H1       -15.1930  -13.8130   19.7620 H    4562  WAT4562     0.2052
  13683  H2       -16.6180  -13.3240   19.6150 H    4562  WAT4562     0.2052
  13684  O        -16.2550  -17.3370   19.2870 O.3  4563  WAT4563    -0.4105
  13685  H1       -15.5320  -16.7960   19.6060 H    4563  WAT4563     0.2052
  13686  H2       -15.9820  -17.6110   18.4120 H    4563  WAT4563     0.2052
  13687  O         -2.4450  -12.4680   23.5550 O.3  4564  WAT4564    -0.4105
  13688  H1        -1.9490  -12.7010   24.3390 H    4564  WAT4564     0.2052
  13689  H2        -2.6440  -13.3070   23.1380 H    4564  WAT4564     0.2052
  13690  O        -16.5650  -18.0870   29.1900 O.3  4565  WAT4565    -0.4105
  13691  H1       -15.9180  -18.6370   28.7490 H    4565  WAT4565     0.2052
  13692  H2       -16.1450  -17.8320   30.0110 H    4565  WAT4565     0.2052
  13693  O         -1.0170  -13.8320   26.0880 O.3  4566  WAT4566    -0.4105
  13694  H1        -1.1270  -13.9860   27.0270 H    4566  WAT4566     0.2052
  13695  H2        -0.2560  -14.3600   25.8460 H    4566  WAT4566     0.2052
  13696  O         -0.1280  -16.0010   19.3290 O.3  4567  WAT4567    -0.4105
  13697  H1         0.7970  -16.1330   19.1210 H    4567  WAT4567     0.2052
  13698  H2        -0.1500  -15.9220   20.2830 H    4567  WAT4567     0.2052
  13699  O         -0.0540  -15.2300   21.9550 O.3  4568  WAT4568    -0.4105
  13700  H1        -0.8490  -15.2960   22.4840 H    4568  WAT4568     0.2052
  13701  H2         0.1510  -14.2950   21.9430 H    4568  WAT4568     0.2052
  13702  O         -3.1120   -1.1910   25.9480 O.3  4569  WAT4569    -0.4105
  13703  H1        -2.5160   -1.5120   25.2720 H    4569  WAT4569     0.2052
  13704  H2        -2.8540   -1.6640   26.7400 H    4569  WAT4569     0.2052
  13705  O         -2.5610   -0.5410   29.7780 O.3  4570  WAT4570    -0.4105
  13706  H1        -3.0200    0.2100   29.4040 H    4570  WAT4570     0.2052
  13707  H2        -3.1890   -1.2610   29.7200 H    4570  WAT4570     0.2052
  13708  O        -12.1310   -2.2330   28.9530 O.3  4571  WAT4571    -0.4105
  13709  H1       -11.6150   -2.8440   28.4280 H    4571  WAT4571     0.2052
  13710  H2       -11.4810   -1.7300   29.4440 H    4571  WAT4571     0.2052
  13711  O         -3.6220  -16.9000   28.4040 O.3  4572  WAT4572    -0.4105
  13712  H1        -3.1810  -16.9560   27.5570 H    4572  WAT4572     0.2052
  13713  H2        -3.8910  -15.9850   28.4760 H    4572  WAT4572     0.2052
  13714  O         -1.7580  -17.2690   26.4150 O.3  4573  WAT4573    -0.4105
  13715  H1        -1.8190  -18.2130   26.2680 H    4573  WAT4573     0.2052
  13716  H2        -0.9790  -17.1610   26.9610 H    4573  WAT4573     0.2052
  13717  O        -17.4530   -1.1300   25.3780 O.3  4574  WAT4574    -0.4105
  13718  H1       -17.6200   -1.7630   26.0760 H    4574  WAT4574     0.2052
  13719  H2       -18.3190   -0.9240   25.0270 H    4574  WAT4574     0.2052
  13720  O        -16.8300  -17.2980   22.8810 O.3  4575  WAT4575    -0.4105
  13721  H1       -16.0720  -17.1850   22.3070 H    4575  WAT4575     0.2052
  13722  H2       -17.2920  -16.4610   22.8350 H    4575  WAT4575     0.2052
  13723  O        -10.2880  -15.1840   25.8710 O.3  4576  WAT4576    -0.4105
  13724  H1       -11.1010  -15.5580   25.5310 H    4576  WAT4576     0.2052
  13725  H2        -9.7840  -15.9400   26.1730 H    4576  WAT4576     0.2052
  13726  O         -5.7860  -18.5200   27.1090 O.3  4577  WAT4577    -0.4105
  13727  H1        -5.1830  -17.9480   27.5840 H    4577  WAT4577     0.2052
  13728  H2        -6.5270  -17.9560   26.8870 H    4577  WAT4577     0.2052
  13729  O         -2.6430  -18.1180   22.3840 O.3  4578  WAT4578    -0.4105
  13730  H1        -2.4470  -17.2190   22.6500 H    4578  WAT4578     0.2052
  13731  H2        -3.4300  -18.3490   22.8770 H    4578  WAT4578     0.2052
  13732  O        -15.8460   -2.4360   22.8230 O.3  4579  WAT4579    -0.4105
  13733  H1       -16.3720   -2.0560   22.1190 H    4579  WAT4579     0.2052
  13734  H2       -15.9220   -1.8110   23.5440 H    4579  WAT4579     0.2052
  13735  O        -14.4570  -16.7720   21.4210 O.3  4580  WAT4580    -0.4105
  13736  H1       -13.9280  -17.5590   21.2920 H    4580  WAT4580     0.2052
  13737  H2       -13.8250  -16.0920   21.6550 H    4580  WAT4580     0.2052
  13738  O        -12.2640  -17.0340   24.4760 O.3  4581  WAT4581    -0.4105
  13739  H1       -12.8930  -17.7350   24.6430 H    4581  WAT4581     0.2052
  13740  H2       -12.8030  -16.2740   24.2590 H    4581  WAT4581     0.2052
  13741  O         -1.0900   -0.8780   24.1440 O.3  4582  WAT4582    -0.4105
  13742  H1        -0.9150   -1.5640   23.5000 H    4582  WAT4582     0.2052
  13743  H2        -1.7880   -0.3530   23.7520 H    4582  WAT4582     0.2052
  13744  O        -13.2470   -0.4880   21.6980 O.3  4583  WAT4583    -0.4105
  13745  H1       -12.5150   -0.7720   21.1500 H    4583  WAT4583     0.2052
  13746  H2       -12.9880   -0.7270   22.5880 H    4583  WAT4583     0.2052
  13747  O        -14.0860   -4.3720   21.7020 O.3  4584  WAT4584    -0.4105
  13748  H1       -14.7150   -3.9030   22.2510 H    4584  WAT4584     0.2052
  13749  H2       -13.9710   -5.2170   22.1370 H    4584  WAT4584     0.2052
  13750  O         -6.6310  -10.3210    7.8520 O.3  4585  WAT4585    -0.4105
  13751  H1        -6.7110  -11.2360    7.5820 H    4585  WAT4585     0.2052
  13752  H2        -7.0440   -9.8240    7.1460 H    4585  WAT4585     0.2052
  13753  O         -8.4990   -8.5430    9.7330 O.3  4586  WAT4586    -0.4105
  13754  H1        -9.2750   -9.0230   10.0230 H    4586  WAT4586     0.2052
  13755  H2        -7.8480   -9.2230    9.5590 H    4586  WAT4586     0.2052
  13756  O        -14.4820   -8.2310   10.6110 O.3  4587  WAT4587    -0.4105
  13757  H1       -15.3140   -8.4860   11.0110 H    4587  WAT4587     0.2052
  13758  H2       -13.8740   -8.1600   11.3470 H    4587  WAT4587     0.2052
  13759  O         -4.4780   -4.1370    8.5130 O.3  4588  WAT4588    -0.4105
  13760  H1        -4.9400   -4.9080    8.8420 H    4588  WAT4588     0.2052
  13761  H2        -3.6660   -4.1110    9.0190 H    4588  WAT4588     0.2052
  13762  O        -14.5020   -4.1970   10.8070 O.3  4589  WAT4589    -0.4105
  13763  H1       -14.1990   -5.0870   10.6280 H    4589  WAT4589     0.2052
  13764  H2       -13.7580   -3.6400   10.5790 H    4589  WAT4589     0.2052
  13765  O        -16.0730  -13.2710    4.3950 O.3  4590  WAT4590    -0.4105
  13766  H1       -16.9610  -12.9290    4.2930 H    4590  WAT4590     0.2052
  13767  H2       -15.7890  -13.4710    3.5030 H    4590  WAT4590     0.2052
  13768  O        -18.1100  -10.6700   10.2790 O.3  4591  WAT4591    -0.4105
  13769  H1       -17.5380  -11.4380   10.2800 H    4591  WAT4591     0.2052
  13770  H2       -18.1100  -10.3720    9.3700 H    4591  WAT4591     0.2052
  13771  O         -8.2520   -1.8510    8.1340 O.3  4592  WAT4592    -0.4105
  13772  H1        -8.8710   -1.3960    7.5630 H    4592  WAT4592     0.2052
  13773  H2        -7.3970   -1.6960    7.7330 H    4592  WAT4592     0.2052
  13774  O         -9.0580   -5.8670    9.7400 O.3  4593  WAT4593    -0.4105
  13775  H1        -9.1270   -6.8080    9.5790 H    4593  WAT4593     0.2052
  13776  H2        -8.2960   -5.7770   10.3130 H    4593  WAT4593     0.2052
  13777  O        -16.8670  -15.2620   12.0660 O.3  4594  WAT4594    -0.4105
  13778  H1       -17.0470  -16.1590   12.3460 H    4594  WAT4594     0.2052
  13779  H2       -17.2690  -14.7150   12.7410 H    4594  WAT4594     0.2052
  13780  O         -8.0270  -13.0600    9.9670 O.3  4595  WAT4595    -0.4105
  13781  H1        -7.6510  -13.9330    9.8550 H    4595  WAT4595     0.2052
  13782  H2        -8.1250  -12.7250    9.0760 H    4595  WAT4595     0.2052
  13783  O        -13.8970  -14.6880    5.4290 O.3  4596  WAT4596    -0.4105
  13784  H1       -13.7900  -13.7870    5.7360 H    4596  WAT4596     0.2052
  13785  H2       -14.8080  -14.7360    5.1380 H    4596  WAT4596     0.2052
  13786  O         -4.2450  -15.5650    6.9000 O.3  4597  WAT4597    -0.4105
  13787  H1        -3.4240  -16.0560    6.9430 H    4597  WAT4597     0.2052
  13788  H2        -4.2120  -14.9760    7.6530 H    4597  WAT4597     0.2052
  13789  O        -16.2490  -12.7660   10.6740 O.3  4598  WAT4598    -0.4105
  13790  H1       -15.5680  -12.5020   11.2930 H    4598  WAT4598     0.2052
  13791  H2       -16.5640  -13.6060   11.0080 H    4598  WAT4598     0.2052
  13792  O        -12.0560  -11.7190    9.7620 O.3  4599  WAT4599    -0.4105
  13793  H1       -11.5480  -11.2210   10.4020 H    4599  WAT4599     0.2052
  13794  H2       -11.5250  -12.4960    9.5850 H    4599  WAT4599     0.2052
  13795  O          0.0450  -13.5490   13.4640 O.3  4600  WAT4600    -0.4105
  13796  H1        -0.6600  -13.1600   12.9460 H    4600  WAT4600     0.2052
  13797  H2         0.3110  -12.8540   14.0670 H    4600  WAT4600     0.2052
  13798  O        -13.7730  -17.0790   14.0280 O.3  4601  WAT4601    -0.4105
  13799  H1       -13.7710  -16.5620   13.2220 H    4601  WAT4601     0.2052
  13800  H2       -14.6020  -17.5560   14.0050 H    4601  WAT4601     0.2052
  13801  O         -7.3850   -6.9670    5.5270 O.3  4602  WAT4602    -0.4105
  13802  H1        -8.0040   -6.5020    4.9630 H    4602  WAT4602     0.2052
  13803  H2        -6.8730   -6.2750    5.9440 H    4602  WAT4602     0.2052
  13804  O        -12.5220   -7.4400   12.2050 O.3  4603  WAT4603    -0.4105
  13805  H1       -12.8550   -6.8130   12.8470 H    4603  WAT4603     0.2052
  13806  H2       -12.3460   -6.9140   11.4250 H    4603  WAT4603     0.2052
  13807  O         -4.0090  -13.6250    9.6730 O.3  4604  WAT4604    -0.4105
  13808  H1        -4.7130  -13.3370   10.2530 H    4604  WAT4604     0.2052
  13809  H2        -3.6480  -12.8150    9.3130 H    4604  WAT4604     0.2052
  13810  O        -14.0910  -15.3680   12.0350 O.3  4605  WAT4605    -0.4105
  13811  H1       -13.7490  -14.5240   11.7400 H    4605  WAT4605     0.2052
  13812  H2       -15.0290  -15.2200   12.1510 H    4605  WAT4605     0.2052
  13813  O        -13.3100   -5.4720   14.0200 O.3  4606  WAT4606    -0.4105
  13814  H1       -12.6930   -4.7970   13.7390 H    4606  WAT4606     0.2052
  13815  H2       -14.1710   -5.0630   13.9290 H    4606  WAT4606     0.2052
  13816  O        -18.0170   -6.2820    2.9010 O.3  4607  WAT4607    -0.4105
  13817  H1       -18.3940   -5.7930    2.1690 H    4607  WAT4607     0.2052
  13818  H2       -17.7600   -5.6090    3.5310 H    4607  WAT4607     0.2052
  13819  O         -2.3930   -4.0080   11.9360 O.3  4608  WAT4608    -0.4105
  13820  H1        -3.0760   -3.3380   11.9270 H    4608  WAT4608     0.2052
  13821  H2        -1.8530   -3.8100   11.1700 H    4608  WAT4608     0.2052
  13822  O         -0.9400  -14.1800   10.0640 O.3  4609  WAT4609    -0.4105
  13823  H1        -1.8880  -14.1460   10.1950 H    4609  WAT4609     0.2052
  13824  H2        -0.6150  -13.3660   10.4490 H    4609  WAT4609     0.2052
  13825  O        -10.4080  -17.8800    8.3590 O.3  4610  WAT4610    -0.4105
  13826  H1       -10.1010  -18.4350    7.6430 H    4610  WAT4610     0.2052
  13827  H2       -11.3380  -17.7460    8.1770 H    4610  WAT4610     0.2052
  13828  O         -4.8570   -2.1630   10.6500 O.3  4611  WAT4611    -0.4105
  13829  H1        -4.8440   -2.5670    9.7820 H    4611  WAT4611     0.2052
  13830  H2        -5.4090   -1.3890   10.5460 H    4611  WAT4611     0.2052
  13831  O         -3.5620   -5.4420    5.7390 O.3  4612  WAT4612    -0.4105
  13832  H1        -3.6730   -6.3840    5.8640 H    4612  WAT4612     0.2052
  13833  H2        -3.5650   -5.0800    6.6250 H    4612  WAT4612     0.2052
  13834  O         -5.4580   -7.2600   11.9780 O.3  4613  WAT4613    -0.4105
  13835  H1        -5.0410   -7.4740   11.1440 H    4613  WAT4613     0.2052
  13836  H2        -4.7340   -7.0030   12.5490 H    4613  WAT4613     0.2052
  13837  O         -8.0200   -9.8150    5.0950 O.3  4614  WAT4614    -0.4105
  13838  H1        -8.9470   -9.8810    5.3240 H    4614  WAT4614     0.2052
  13839  H2        -7.8680   -8.8770    4.9810 H    4614  WAT4614     0.2052
  13840  O         -8.0330  -13.5440    2.0920 O.3  4615  WAT4615    -0.4105
  13841  H1        -8.9730  -13.3820    2.1770 H    4615  WAT4615     0.2052
  13842  H2        -7.7150  -12.8250    1.5460 H    4615  WAT4615     0.2052
  13843  O         -1.5120   -8.8620   12.0700 O.3  4616  WAT4616    -0.4105
  13844  H1        -2.3400   -8.7920   11.5950 H    4616  WAT4616     0.2052
  13845  H2        -0.9170   -8.2760   11.6020 H    4616  WAT4616     0.2052
  13846  O         -3.9900   -8.2530    5.5990 O.3  4617  WAT4617    -0.4105
  13847  H1        -4.6090   -8.5910    4.9520 H    4617  WAT4617     0.2052
  13848  H2        -4.0080   -8.8970    6.3070 H    4617  WAT4617     0.2052
  13849  O         -4.5480  -12.0750   13.0160 O.3  4618  WAT4618    -0.4105
  13850  H1        -4.9610  -11.2490   13.2700 H    4618  WAT4618     0.2052
  13851  H2        -5.2800  -12.6600   12.8230 H    4618  WAT4618     0.2052
  13852  O        -12.4140   -9.2890    7.8770 O.3  4619  WAT4619    -0.4105
  13853  H1       -12.8190  -10.0010    7.3820 H    4619  WAT4619     0.2052
  13854  H2       -12.3280   -9.6330    8.7660 H    4619  WAT4619     0.2052
  13855  O        -11.9460   -5.6020   10.0410 O.3  4620  WAT4620    -0.4105
  13856  H1       -12.2430   -6.2070    9.3620 H    4620  WAT4620     0.2052
  13857  H2       -10.9960   -5.5640    9.9300 H    4620  WAT4620     0.2052
  13858  O        -13.7020  -12.5140   11.6570 O.3  4621  WAT4621    -0.4105
  13859  H1       -13.1500  -12.4050   10.8830 H    4621  WAT4621     0.2052
  13860  H2       -13.1870  -12.1410   12.3730 H    4621  WAT4621     0.2052
  13861  O         -3.8580   -2.0290   13.7040 O.3  4622  WAT4622    -0.4105
  13862  H1        -4.3350   -1.2220   13.5110 H    4622  WAT4622     0.2052
  13863  H2        -4.5420   -2.6810   13.8560 H    4622  WAT4622     0.2052
  13864  O        -12.8540   -5.8640   16.6920 O.3  4623  WAT4623    -0.4105
  13865  H1       -13.7520   -5.6400   16.9390 H    4623  WAT4623     0.2052
  13866  H2       -12.8290   -5.7400   15.7430 H    4623  WAT4623     0.2052
  13867  O         -5.8140   -9.0150    2.6060 O.3  4624  WAT4624    -0.4105
  13868  H1        -5.3750   -9.8520    2.4600 H    4624  WAT4624     0.2052
  13869  H2        -5.1010   -8.3820    2.6930 H    4624  WAT4624     0.2052
  13870  O        -14.0270   -8.9920   15.2680 O.3  4625  WAT4625    -0.4105
  13871  H1       -14.1670   -8.1200   15.6370 H    4625  WAT4625     0.2052
  13872  H2       -14.9090   -9.3350   15.1230 H    4625  WAT4625     0.2052
  13873  O         -7.7040   -4.0750    6.5740 O.3  4626  WAT4626    -0.4105
  13874  H1        -7.2650   -3.3320    6.1600 H    4626  WAT4626     0.2052
  13875  H2        -7.7660   -3.8320    7.4980 H    4626  WAT4626     0.2052
  13876  O        -12.2290   -3.0500   17.4760 O.3  4627  WAT4627    -0.4105
  13877  H1       -12.2580   -2.6460   16.6090 H    4627  WAT4627     0.2052
  13878  H2       -12.3930   -3.9790   17.3130 H    4627  WAT4627     0.2052
  13879  O         -2.2320  -17.7600    0.9200 O.3  4628  WAT4628    -0.4105
  13880  H1        -2.5450  -17.6680    1.8200 H    4628  WAT4628     0.2052
  13881  H2        -1.4710  -17.1820    0.8700 H    4628  WAT4628     0.2052
  13882  O        -15.7140  -10.3940    5.3780 O.3  4629  WAT4629    -0.4105
  13883  H1       -15.8340   -9.6680    4.7660 H    4629  WAT4629     0.2052
  13884  H2       -16.0240  -11.1640    4.9010 H    4629  WAT4629     0.2052
  13885  O         -0.2780   -2.2680   18.7730 O.3  4630  WAT4630    -0.4105
  13886  H1         0.1980   -1.7890   19.4520 H    4630  WAT4630     0.2052
  13887  H2         0.3430   -2.3360   18.0470 H    4630  WAT4630     0.2052
  13888  O        -18.0750   -7.2230   11.1850 O.3  4631  WAT4631    -0.4105
  13889  H1       -17.9970   -7.0880   10.2400 H    4631  WAT4631     0.2052
  13890  H2       -17.4610   -7.9310   11.3780 H    4631  WAT4631     0.2052
  13891  O        -16.8310   -5.5230    7.5960 O.3  4632  WAT4632    -0.4105
  13892  H1       -17.2380   -5.3810    6.7410 H    4632  WAT4632     0.2052
  13893  H2       -15.9390   -5.8070    7.3930 H    4632  WAT4632     0.2052
  13894  O         -0.8750   -5.0760   15.9330 O.3  4633  WAT4633    -0.4105
  13895  H1        -0.7480   -5.3150   15.0140 H    4633  WAT4633     0.2052
  13896  H2        -0.8320   -5.9080   16.4050 H    4633  WAT4633     0.2052
  13897  O         -7.0130   -1.3740   14.5020 O.3  4634  WAT4634    -0.4105
  13898  H1        -6.4980   -1.4630   15.3040 H    4634  WAT4634     0.2052
  13899  H2        -7.8560   -1.0280   14.7950 H    4634  WAT4634     0.2052
  13900  O         -5.0370   -1.0880    3.9310 O.3  4635  WAT4635    -0.4105
  13901  H1        -5.1970   -1.3780    4.8290 H    4635  WAT4635     0.2052
  13902  H2        -5.2030   -1.8640    3.3950 H    4635  WAT4635     0.2052
  13903  O        -12.5590   -1.3080    5.7080 O.3  4636  WAT4636    -0.4105
  13904  H1       -12.7340   -2.2250    5.4950 H    4636  WAT4636     0.2052
  13905  H2       -13.4130   -0.9490    5.9480 H    4636  WAT4636     0.2052
  13906  O         -5.3350   -3.5790    2.4900 O.3  4637  WAT4637    -0.4105
  13907  H1        -6.0280   -3.5820    1.8310 H    4637  WAT4637     0.2052
  13908  H2        -4.5930   -4.0030    2.0600 H    4637  WAT4637     0.2052
  13909  O         -5.7700   -1.9530    6.5650 O.3  4638  WAT4638    -0.4105
  13910  H1        -5.3140   -2.7340    6.8790 H    4638  WAT4638     0.2052
  13911  H2        -5.4310   -1.2420    7.1090 H    4638  WAT4638     0.2052
  13912  O         -1.0220  -13.0230   16.8980 O.3  4639  WAT4639    -0.4105
  13913  H1        -1.6380  -12.5150   16.3690 H    4639  WAT4639     0.2052
  13914  H2        -1.3420  -13.9230   16.8400 H    4639  WAT4639     0.2052
  13915  O        -18.0200   -6.1810   13.7240 O.3  4640  WAT4640    -0.4105
  13916  H1       -17.8560   -6.6510   12.9060 H    4640  WAT4640     0.2052
  13917  H2       -17.5540   -6.6890   14.3890 H    4640  WAT4640     0.2052
  13918  O        -13.2480  -17.0510    8.7600 O.3  4641  WAT4641    -0.4105
  13919  H1       -13.6910  -16.2700    8.4290 H    4641  WAT4641     0.2052
  13920  H2       -12.6890  -16.7280    9.4680 H    4641  WAT4641     0.2052
  13921  O         -8.9610  -14.1840   14.3640 O.3  4642  WAT4642    -0.4105
  13922  H1        -9.4230  -13.9760   15.1760 H    4642  WAT4642     0.2052
  13923  H2        -9.3630  -14.9980   14.0610 H    4642  WAT4642     0.2052
  13924  O         -3.9600  -12.9630   15.4940 O.3  4643  WAT4643    -0.4105
  13925  H1        -4.8110  -13.2620   15.8150 H    4643  WAT4643     0.2052
  13926  H2        -4.1200  -12.7190   14.5820 H    4643  WAT4643     0.2052
  13927  O         -6.8650  -11.4630   17.5930 O.3  4644  WAT4644    -0.4105
  13928  H1        -6.5400  -12.2960   17.2540 H    4644  WAT4644     0.2052
  13929  H2        -6.0770  -10.9400   17.7410 H    4644  WAT4644     0.2052
  13930  O        -10.1320  -17.4300    3.6410 O.3  4645  WAT4645    -0.4105
  13931  H1       -10.7560  -17.4340    4.3660 H    4645  WAT4645     0.2052
  13932  H2       -10.2190  -18.2970    3.2450 H    4645  WAT4645     0.2052
  13933  O        -11.2100  -16.5060   10.6190 O.3  4646  WAT4646    -0.4105
  13934  H1       -10.9130  -15.6000   10.5390 H    4646  WAT4646     0.2052
  13935  H2       -10.6620  -16.9940   10.0050 H    4646  WAT4646     0.2052
  13936  O        -13.4560  -11.9270    6.4890 O.3  4647  WAT4647    -0.4105
  13937  H1       -13.6820  -12.1440    7.3930 H    4647  WAT4647     0.2052
  13938  H2       -14.2370  -11.4950    6.1430 H    4647  WAT4647     0.2052
  13939  O         -6.2260  -11.9210    5.0880 O.3  4648  WAT4648    -0.4105
  13940  H1        -6.8260  -11.1970    4.9040 H    4648  WAT4648     0.2052
  13941  H2        -5.6790  -11.9830    4.3050 H    4648  WAT4648     0.2052
  13942  O        -11.0160  -11.0290   17.1550 O.3  4649  WAT4649    -0.4105
  13943  H1       -11.1120  -11.9690   17.0050 H    4649  WAT4649     0.2052
  13944  H2       -10.1730  -10.8070   16.7590 H    4649  WAT4649     0.2052
  13945  O         -7.6200  -13.2850    7.1180 O.3  4650  WAT4650    -0.4105
  13946  H1        -7.2270  -12.9670    6.3050 H    4650  WAT4650     0.2052
  13947  H2        -7.2580  -14.1640    7.2320 H    4650  WAT4650     0.2052
  13948  O        -15.8850  -14.6170   15.3080 O.3  4651  WAT4651    -0.4105
  13949  H1       -16.2790  -13.7700   15.5150 H    4651  WAT4651     0.2052
  13950  H2       -16.5730  -15.2550   15.4990 H    4651  WAT4651     0.2052
  13951  O         -9.3110  -14.5340   18.3780 O.3  4652  WAT4652    -0.4105
  13952  H1       -10.0010  -14.7270   19.0120 H    4652  WAT4652     0.2052
  13953  H2        -8.5680  -14.2510   18.9100 H    4652  WAT4652     0.2052
  13954  O        -18.5840  -16.6950    9.3410 O.3  4653  WAT4653    -0.4105
  13955  H1       -18.8720  -16.1240   10.0530 H    4653  WAT4653     0.2052
  13956  H2       -17.8390  -17.1740    9.7040 H    4653  WAT4653     0.2052
  13957  O        -18.3970  -12.7530    0.5510 O.3  4654  WAT4654    -0.4105
  13958  H1       -18.4790  -11.8100    0.6930 H    4654  WAT4654     0.2052
  13959  H2       -18.7480  -12.8950   -0.3280 H    4654  WAT4654     0.2052
  13960  O         -7.0340  -10.6940   11.2130 O.3  4655  WAT4655    -0.4105
  13961  H1        -7.7660  -10.1850   11.5620 H    4655  WAT4655     0.2052
  13962  H2        -7.4320  -11.5110   10.9120 H    4655  WAT4655     0.2052
  13963  O        -10.5970  -14.0190    9.6180 O.3  4656  WAT4656    -0.4105
  13964  H1       -10.5930  -14.4600    8.7690 H    4656  WAT4656     0.2052
  13965  H2        -9.7020  -13.6970    9.7250 H    4656  WAT4656     0.2052
  13966  O        -14.7460  -14.1360    8.5780 O.3  4657  WAT4657    -0.4105
  13967  H1       -15.0860  -13.6590    9.3340 H    4657  WAT4657     0.2052
  13968  H2       -15.5090  -14.5900    8.2180 H    4657  WAT4657     0.2052
  13969  O        -10.5350  -13.0170    2.6090 O.3  4658  WAT4658    -0.4105
  13970  H1       -10.4130  -13.0590    3.5580 H    4658  WAT4658     0.2052
  13971  H2       -10.9200  -12.1550    2.4540 H    4658  WAT4658     0.2052
  13972  O         -6.5720  -15.2410   10.6250 O.3  4659  WAT4659    -0.4105
  13973  H1        -6.5550  -14.7900   11.4690 H    4659  WAT4659     0.2052
  13974  H2        -6.8200  -16.1400   10.8390 H    4659  WAT4659     0.2052
  13975  O        -11.5230  -10.7070    2.0070 O.3  4660  WAT4660    -0.4105
  13976  H1       -12.0910  -11.1560    1.3810 H    4660  WAT4660     0.2052
  13977  H2       -10.8140  -10.3480    1.4740 H    4660  WAT4660     0.2052
  13978  O         -3.1450  -17.8280   16.4640 O.3  4661  WAT4661    -0.4105
  13979  H1        -2.8200  -18.5590   16.9900 H    4661  WAT4661     0.2052
  13980  H2        -3.1090  -18.1460   15.5620 H    4661  WAT4661     0.2052
  13981  O        -16.4460   -6.8060   15.8840 O.3  4662  WAT4662    -0.4105
  13982  H1       -16.8300   -7.4470   16.4820 H    4662  WAT4662     0.2052
  13983  H2       -16.1340   -6.1030   16.4530 H    4662  WAT4662     0.2052
  13984  O        -10.2960   -9.9590   11.3650 O.3  4663  WAT4663    -0.4105
  13985  H1        -9.9290  -10.4330   12.1110 H    4663  WAT4663     0.2052
  13986  H2       -10.4850   -9.0840   11.7060 H    4663  WAT4663     0.2052
  13987  O        -17.4320  -15.2140    7.4940 O.3  4664  WAT4664    -0.4105
  13988  H1       -17.7170  -15.5790    8.3320 H    4664  WAT4664     0.2052
  13989  H2       -17.4940  -15.9460    6.8800 H    4664  WAT4664     0.2052
  13990  O        -12.5060  -10.9180   13.6830 O.3  4665  WAT4665    -0.4105
  13991  H1       -12.8100  -10.0380   13.9080 H    4665  WAT4665     0.2052
  13992  H2       -11.5510  -10.8580   13.7190 H    4665  WAT4665     0.2052
  13993  O        -13.9780   -6.7120    4.2800 O.3  4666  WAT4666    -0.4105
  13994  H1       -14.7520   -7.2520    4.1200 H    4666  WAT4666     0.2052
  13995  H2       -13.2480   -7.2310    3.9420 H    4666  WAT4666     0.2052
  13996  O         -3.2190   -7.7150   10.0730 O.3  4667  WAT4667    -0.4105
  13997  H1        -2.4990   -7.2190    9.6820 H    4667  WAT4667     0.2052
  13998  H2        -3.4210   -8.3930    9.4280 H    4667  WAT4667     0.2052
  13999  O         -7.7580  -16.3210    4.2150 O.3  4668  WAT4668    -0.4105
  14000  H1        -8.5720  -16.8200    4.1400 H    4668  WAT4668     0.2052
  14001  H2        -7.9520  -15.4810    3.7990 H    4668  WAT4668     0.2052
  14002  O         -7.8370   -7.6440   15.9590 O.3  4669  WAT4669    -0.4105
  14003  H1        -7.9030   -8.5650   15.7050 H    4669  WAT4669     0.2052
  14004  H2        -8.4670   -7.5470   16.6740 H    4669  WAT4669     0.2052
  14005  O         -5.0430  -11.9490    2.5120 O.3  4670  WAT4670    -0.4105
  14006  H1        -4.1550  -11.6380    2.3370 H    4670  WAT4670     0.2052
  14007  H2        -5.0730  -12.8220    2.1200 H    4670  WAT4670     0.2052
  14008  O        -13.9340   -7.0440    7.9180 O.3  4671  WAT4671    -0.4105
  14009  H1       -13.4160   -7.8470    7.8630 H    4671  WAT4671     0.2052
  14010  H2       -14.3860   -7.1060    8.7590 H    4671  WAT4671     0.2052
  14011  O         -9.0470   -5.7770    3.1910 O.3  4672  WAT4672    -0.4105
  14012  H1        -8.7060   -5.0330    2.6950 H    4672  WAT4672     0.2052
  14013  H2        -9.8760   -5.4640    3.5530 H    4672  WAT4672     0.2052
  14014  O        -16.4500  -10.0770   14.8300 O.3  4673  WAT4673    -0.4105
  14015  H1       -16.8080   -9.4120   15.4180 H    4673  WAT4673     0.2052
  14016  H2       -16.7440  -10.9090   15.2020 H    4673  WAT4673     0.2052
  14017  O        -13.2480   -9.6190   17.7140 O.3  4674  WAT4674    -0.4105
  14018  H1       -13.5480   -9.4730   16.8170 H    4674  WAT4674     0.2052
  14019  H2       -12.4770  -10.1780   17.6220 H    4674  WAT4674     0.2052
  14020  O         -7.9050   -4.8220   15.7100 O.3  4675  WAT4675    -0.4105
  14021  H1        -7.8910   -5.7540   15.4920 H    4675  WAT4675     0.2052
  14022  H2        -8.6130   -4.7360   16.3490 H    4675  WAT4675     0.2052
  14023  O         -2.7720  -10.6380    1.9800 O.3  4676  WAT4676    -0.4105
  14024  H1        -2.8550  -10.2070    1.1290 H    4676  WAT4676     0.2052
  14025  H2        -2.0520  -10.1780    2.4120 H    4676  WAT4676     0.2052
  14026  O         -1.6940   -8.1810   15.0570 O.3  4677  WAT4677    -0.4105
  14027  H1        -2.4200   -7.5880   14.8600 H    4677  WAT4677     0.2052
  14028  H2        -1.1670   -8.1890   14.2580 H    4677  WAT4677     0.2052
  14029  O         -1.7430   -3.7840    4.7080 O.3  4678  WAT4678    -0.4105
  14030  H1        -2.3850   -4.4380    4.9820 H    4678  WAT4678     0.2052
  14031  H2        -2.1300   -3.3780    3.9320 H    4678  WAT4678     0.2052
  14032  O         -6.1640   -6.4550    8.5550 O.3  4679  WAT4679    -0.4105
  14033  H1        -5.8120   -7.0530    7.8950 H    4679  WAT4679     0.2052
  14034  H2        -7.0480   -6.7810    8.7260 H    4679  WAT4679     0.2052
  14035  O        -10.0780   -5.6960    5.9620 O.3  4680  WAT4680    -0.4105
  14036  H1        -9.3910   -5.1490    6.3430 H    4680  WAT4680     0.2052
  14037  H2       -10.8650   -5.1510    5.9970 H    4680  WAT4680     0.2052
  14038  O        -17.9390  -10.0780    1.4540 O.3  4681  WAT4681    -0.4105
  14039  H1       -17.0690   -9.7960    1.7370 H    4681  WAT4681     0.2052
  14040  H2       -18.4300   -9.2650    1.3390 H    4681  WAT4681     0.2052
  14041  O        -10.7750   -8.6910    5.5750 O.3  4682  WAT4682    -0.4105
  14042  H1       -10.3190   -7.8800    5.8010 H    4682  WAT4682     0.2052
  14043  H2       -11.1270   -9.0090    6.4060 H    4682  WAT4682     0.2052
  14044  O         -8.4720   -3.1800   12.8040 O.3  4683  WAT4683    -0.4105
  14045  H1        -7.8280   -2.9740   13.4810 H    4683  WAT4683     0.2052
  14046  H2        -8.1090   -3.9410   12.3510 H    4683  WAT4683     0.2052
  14047  O        -14.8740  -18.3470    6.0470 O.3  4684  WAT4684    -0.4105
  14048  H1       -15.0030  -18.3550    6.9950 H    4684  WAT4684     0.2052
  14049  H2       -15.6980  -18.0090    5.6960 H    4684  WAT4684     0.2052
  14050  O         -7.1990   -5.1770   11.5220 O.3  4685  WAT4685    -0.4105
  14051  H1        -6.5570   -5.8780   11.6350 H    4685  WAT4685     0.2052
  14052  H2        -6.6740   -4.3970   11.3410 H    4685  WAT4685     0.2052
  14053  O         -3.3530   -4.8920    1.2460 O.3  4686  WAT4686    -0.4105
  14054  H1        -3.5800   -5.6090    1.8380 H    4686  WAT4686     0.2052
  14055  H2        -3.7440   -5.1410    0.4080 H    4686  WAT4686     0.2052
  14056  O         -5.4250   -4.3780   14.7250 O.3  4687  WAT4687    -0.4105
  14057  H1        -5.0890   -3.7910   15.4030 H    4687  WAT4687     0.2052
  14058  H2        -6.3450   -4.5080   14.9550 H    4687  WAT4687     0.2052
  14059  O        -17.5720   -0.8660    2.0200 O.3  4688  WAT4688    -0.4105
  14060  H1       -17.2120   -0.2670    1.3660 H    4688  WAT4688     0.2052
  14061  H2       -17.7120   -0.3200    2.7930 H    4688  WAT4688     0.2052
  14062  O        -17.8750  -16.5880   15.5080 O.3  4689  WAT4689    -0.4105
  14063  H1       -18.5890  -16.3880   16.1130 H    4689  WAT4689     0.2052
  14064  H2       -17.4550  -17.3640   15.8790 H    4689  WAT4689     0.2052
  14065  O         -3.7720   -6.9750    2.9070 O.3  4690  WAT4690    -0.4105
  14066  H1        -4.0600   -6.5140    3.6950 H    4690  WAT4690     0.2052
  14067  H2        -2.9760   -7.4350    3.1750 H    4690  WAT4690     0.2052
  14068  O        -17.5880   -2.6000   16.4940 O.3  4691  WAT4691    -0.4105
  14069  H1       -17.4780   -3.5410   16.3540 H    4691  WAT4691     0.2052
  14070  H2       -18.2390   -2.3350   15.8460 H    4691  WAT4691     0.2052
  14071  O         -9.5960   -4.3280   17.8940 O.3  4692  WAT4692    -0.4105
  14072  H1        -9.9170   -5.0480   18.4390 H    4692  WAT4692     0.2052
  14073  H2       -10.2700   -3.6530   17.9680 H    4692  WAT4692     0.2052
  14074  O        -11.5550   -3.4820    2.8370 O.3  4693  WAT4693    -0.4105
  14075  H1       -11.5640   -2.7490    2.2220 H    4693  WAT4693     0.2052
  14076  H2       -12.4750   -3.7290    2.9300 H    4693  WAT4693     0.2052
  14077  O        -15.9540   -8.2610    3.5820 O.3  4694  WAT4694    -0.4105
  14078  H1       -16.5610   -7.5210    3.5920 H    4694  WAT4694     0.2052
  14079  H2       -15.4790   -8.1710    2.7560 H    4694  WAT4694     0.2052
  14080  O         -6.3810  -14.0960   13.2580 O.3  4695  WAT4695    -0.4105
  14081  H1        -6.0130  -14.9160   13.5860 H    4695  WAT4695     0.2052
  14082  H2        -7.2410  -14.0360   13.6730 H    4695  WAT4695     0.2052
  14083  O         -3.0150  -15.1400    4.0660 O.3  4696  WAT4696    -0.4105
  14084  H1        -3.6430  -15.0360    3.3520 H    4696  WAT4696     0.2052
  14085  H2        -3.5090  -14.9200    4.8560 H    4696  WAT4696     0.2052
  14086  O         -8.5690   -3.4200    1.5000 O.3  4697  WAT4697    -0.4105
  14087  H1        -8.4680   -3.6230    0.5700 H    4697  WAT4697     0.2052
  14088  H2        -9.4690   -3.6740    1.7050 H    4697  WAT4697     0.2052
  14089  O        -11.0460  -12.8620    5.4820 O.3  4698  WAT4698    -0.4105
  14090  H1       -11.7550  -12.3930    5.9240 H    4698  WAT4698     0.2052
  14091  H2       -10.7620  -13.5190    6.1170 H    4698  WAT4698     0.2052
  14092  O         -9.4210  -11.4420   13.4820 O.3  4699  WAT4699    -0.4105
  14093  H1        -8.9220  -10.9670   14.1470 H    4699  WAT4699     0.2052
  14094  H2        -9.2780  -12.3660   13.6890 H    4699  WAT4699     0.2052
  14095  O         -7.0150  -16.1360    6.9220 O.3  4700  WAT4700    -0.4105
  14096  H1        -7.1380  -16.1180    5.9730 H    4700  WAT4700     0.2052
  14097  H2        -6.0660  -16.0890    7.0420 H    4700  WAT4700     0.2052
  14098  O         -9.9270   -0.9010    6.1950 O.3  4701  WAT4701    -0.4105
  14099  H1        -9.6730   -0.9390    5.2730 H    4701  WAT4701     0.2052
  14100  H2       -10.8760   -1.0280    6.1870 H    4701  WAT4701     0.2052
  14101  O        -12.8430  -14.5530    2.8570 O.3  4702  WAT4702    -0.4105
  14102  H1       -11.9940  -14.1160    2.7910 H    4702  WAT4702     0.2052
  14103  H2       -13.2100  -14.2410    3.6850 H    4702  WAT4702     0.2052
  14104  O         -2.2140  -15.2250   14.3240 O.3  4703  WAT4703    -0.4105
  14105  H1        -2.7170  -14.4850   14.6640 H    4703  WAT4703     0.2052
  14106  H2        -1.3980  -14.8370   14.0080 H    4703  WAT4703     0.2052
  14107  O         -3.9220   -9.9820    7.7700 O.3  4704  WAT4704    -0.4105
  14108  H1        -4.8630   -9.9670    7.9450 H    4704  WAT4704     0.2052
  14109  H2        -3.6070  -10.7680    8.2170 H    4704  WAT4704     0.2052
  14110  O        -13.9440   -8.3000    1.3310 O.3  4705  WAT4705    -0.4105
  14111  H1       -13.1770   -8.4120    1.8930 H    4705  WAT4705     0.2052
  14112  H2       -13.8660   -8.9960    0.6790 H    4705  WAT4705     0.2052
  14113  O        -15.2490  -10.8670    2.0140 O.3  4706  WAT4706    -0.4105
  14114  H1       -15.1690  -11.8150    2.1260 H    4706  WAT4706     0.2052
  14115  H2       -14.3570  -10.5370    2.1200 H    4706  WAT4706     0.2052
  14116  O         -1.9190   -2.8110    9.4460 O.3  4707  WAT4707    -0.4105
  14117  H1        -1.7950   -1.9880    9.9180 H    4707  WAT4707     0.2052
  14118  H2        -1.0530   -3.0220    9.0980 H    4707  WAT4707     0.2052
  14119  O        -14.4470   -0.7180    9.1180 O.3  4708  WAT4708    -0.4105
  14120  H1       -13.7110   -1.2660    9.3880 H    4708  WAT4708     0.2052
  14121  H2       -14.0630    0.1480    8.9780 H    4708  WAT4708     0.2052
  14122  O        -17.5630   -4.6500    4.9920 O.3  4709  WAT4709    -0.4105
  14123  H1       -18.4890   -4.4080    4.9820 H    4709  WAT4709     0.2052
  14124  H2       -17.0970   -3.8230    4.8700 H    4709  WAT4709     0.2052
  14125  O        -15.4420   -1.5330   18.3060 O.3  4710  WAT4710    -0.4105
  14126  H1       -14.6400   -1.2120   18.7200 H    4710  WAT4710     0.2052
  14127  H2       -15.9560   -1.8940   19.0280 H    4710  WAT4710     0.2052
  14128  O        -11.3370   -1.5450    0.9400 O.3  4711  WAT4711    -0.4105
  14129  H1       -10.5440   -1.2560    0.4880 H    4711  WAT4711     0.2052
  14130  H2       -11.8570   -1.9760    0.2610 H    4711  WAT4711     0.2052
  14131  O         -6.6050   -5.4250   18.2540 O.3  4712  WAT4712    -0.4105
  14132  H1        -7.2110   -5.4020   17.5130 H    4712  WAT4712     0.2052
  14133  H2        -6.9100   -6.1570   18.7900 H    4712  WAT4712     0.2052
  14134  O         -5.1750   -1.6970   16.8650 O.3  4713  WAT4713    -0.4105
  14135  H1        -4.2230   -1.7810   16.8150 H    4713  WAT4713     0.2052
  14136  H2        -5.3220   -1.0330   17.5380 H    4713  WAT4713     0.2052
  14137  O         -2.2840   -2.3180    2.3640 O.3  4714  WAT4714    -0.4105
  14138  H1        -2.5700   -2.7310    1.5490 H    4714  WAT4714     0.2052
  14139  H2        -2.4820   -1.3890    2.2440 H    4714  WAT4714     0.2052
  14140  O        -17.7220   -9.0460   17.2500 O.3  4715  WAT4715    -0.4105
  14141  H1       -17.2180   -9.6250   17.8210 H    4715  WAT4715     0.2052
  14142  H2       -18.4610   -8.7620   17.7870 H    4715  WAT4715     0.2052
  14143  O        -10.8200   -6.3240    0.8040 O.3  4716  WAT4716    -0.4105
  14144  H1       -10.9240   -6.9390    1.5310 H    4716  WAT4716     0.2052
  14145  H2       -10.9870   -6.8480    0.0210 H    4716  WAT4716     0.2052
  14146  O        -10.6680   -7.6390   16.7830 O.3  4717  WAT4717    -0.4105
  14147  H1       -11.4340   -7.0700   16.6990 H    4717  WAT4717     0.2052
  14148  H2       -10.4860   -7.9310   15.8900 H    4717  WAT4717     0.2052
  14149  O         -7.5790   -7.2620    1.4090 O.3  4718  WAT4718    -0.4105
  14150  H1        -8.1280   -6.8150    2.0530 H    4718  WAT4718     0.2052
  14151  H2        -6.9570   -7.7670    1.9320 H    4718  WAT4718     0.2052
  14152  O         -3.5260   -5.9080   17.3410 O.3  4719  WAT4719    -0.4105
  14153  H1        -2.7850   -5.5710   16.8380 H    4719  WAT4719     0.2052
  14154  H2        -4.2880   -5.7390   16.7880 H    4719  WAT4719     0.2052
  14155  O        -15.6900  -10.9030   18.1450 O.3  4720  WAT4720    -0.4105
  14156  H1       -15.6490  -11.2010   19.0530 H    4720  WAT4720     0.2052
  14157  H2       -14.8350  -10.5020   17.9860 H    4720  WAT4720     0.2052
  14158  O        -11.9120   -8.3030    3.3050 O.3  4721  WAT4721    -0.4105
  14159  H1       -11.4900   -8.4690    4.1480 H    4721  WAT4721     0.2052
  14160  H2       -11.7870   -9.1130    2.8110 H    4721  WAT4721     0.2052
  14161  O        -13.7490  -12.3240   16.1120 O.3  4722  WAT4722    -0.4105
  14162  H1       -14.2790  -12.8150   15.4850 H    4722  WAT4722     0.2052
  14163  H2       -13.0800  -11.8950   15.5780 H    4722  WAT4722     0.2052
  14164  O         -9.3990   -9.2800    0.5530 O.3  4723  WAT4723    -0.4105
  14165  H1        -8.8780   -9.9950    0.1870 H    4723  WAT4723     0.2052
  14166  H2        -8.7520   -8.6410    0.8530 H    4723  WAT4723     0.2052
  14167  O         -4.8510   -7.8570   15.8760 O.3  4724  WAT4724    -0.4105
  14168  H1        -4.4370   -7.7020   16.7250 H    4724  WAT4724     0.2052
  14169  H2        -5.7860   -7.7310   16.0390 H    4724  WAT4724     0.2052
  14170  O         -4.3790  -10.5170   17.8800 O.3  4725  WAT4725    -0.4105
  14171  H1        -3.7970  -11.2720   17.7920 H    4725  WAT4725     0.2052
  14172  H2        -4.2030   -9.9860   17.1030 H    4725  WAT4725     0.2052
  14173  O        -13.2620  -15.3570   16.1920 O.3  4726  WAT4726    -0.4105
  14174  H1       -13.3560  -15.9750   15.4670 H    4726  WAT4726     0.2052
  14175  H2       -13.8420  -14.6310   15.9650 H    4726  WAT4726     0.2052
  14176  O        -10.4960  -16.8000   13.2250 O.3  4727  WAT4727    -0.4105
  14177  H1       -10.9440  -16.7780   12.3790 H    4727  WAT4727     0.2052
  14178  H2       -11.1290  -17.1980   13.8220 H    4727  WAT4727     0.2052
  14179  O        -10.0900   -7.9050   13.8460 O.3  4728  WAT4728    -0.4105
  14180  H1        -9.6710   -7.0610   13.6740 H    4728  WAT4728     0.2052
  14181  H2       -11.0090   -7.7670   13.6170 H    4728  WAT4728     0.2052
  14182  O         -7.7530  -10.1730   15.2300 O.3  4729  WAT4729    -0.4105
  14183  H1        -7.6340  -10.7690   15.9690 H    4729  WAT4729     0.2052
  14184  H2        -6.8940  -10.1360   14.8100 H    4729  WAT4729     0.2052
  14185  O         -5.4140   -9.6190   13.8060 O.3  4730  WAT4730    -0.4105
  14186  H1        -5.9410   -9.0950   13.2030 H    4730  WAT4730     0.2052
  14187  H2        -5.0710   -8.9870   14.4370 H    4730  WAT4730     0.2052
  14188  O        -13.0160  -12.2300    0.2510 O.3  4731  WAT4731    -0.4105
  14189  H1       -13.2170  -13.0930    0.6120 H    4731  WAT4731     0.2052
  14190  H2       -13.1870  -12.3170   -0.6870 H    4731  WAT4731     0.2052
  14191  O        -12.2390   -1.5990   14.9620 O.3  4732  WAT4732    -0.4105
  14192  H1       -12.7770   -0.8750   14.6430 H    4732  WAT4732     0.2052
  14193  H2       -11.9860   -2.0760   14.1710 H    4732  WAT4732     0.2052
  14194  O        -10.9860  -13.6310   16.4870 O.3  4733  WAT4733    -0.4105
  14195  H1       -10.3960  -13.9390   17.1750 H    4733  WAT4733     0.2052
  14196  H2       -11.8040  -14.1030   16.6430 H    4733  WAT4733     0.2052
  14197  O         -6.1670  -14.0140   16.7210 O.3  4734  WAT4734    -0.4105
  14198  H1        -6.8560  -14.6760   16.6560 H    4734  WAT4734     0.2052
  14199  H2        -5.4460  -14.4600   17.1650 H    4734  WAT4734     0.2052
  14200  O         -5.5370  -17.4190    2.7800 O.3  4735  WAT4735    -0.4105
  14201  H1        -5.2570  -18.2620    3.1360 H    4735  WAT4735     0.2052
  14202  H2        -6.3100  -17.1870    3.2940 H    4735  WAT4735     0.2052
  14203  O        -14.2180  -15.1300    0.2390 O.3  4736  WAT4736    -0.4105
  14204  H1       -13.9150  -15.1230   -0.6690 H    4736  WAT4736     0.2052
  14205  H2       -13.4780  -15.4800    0.7360 H    4736  WAT4736     0.2052
  14206  O         -9.3830   -0.3640   15.2200 O.3  4737  WAT4737    -0.4105
  14207  H1        -9.4570    0.5390   15.5280 H    4737  WAT4737     0.2052
  14208  H2       -10.2850   -0.6830   15.1930 H    4737  WAT4737     0.2052
  14209  O        -10.9990  -16.1860    1.2240 O.3  4738  WAT4738    -0.4105
  14210  H1       -11.3470  -16.8640    0.6450 H    4738  WAT4738     0.2052
  14211  H2       -10.7980  -16.6470    2.0390 H    4738  WAT4738     0.2052
  14212  O         -8.8340   -1.1980    2.8430 O.3  4739  WAT4739    -0.4105
  14213  H1        -7.9390   -0.8600    2.8650 H    4739  WAT4739     0.2052
  14214  H2        -8.8020   -1.9200    2.2150 H    4739  WAT4739     0.2052
  14215  O        -15.1950   -5.8260    1.0720 O.3  4740  WAT4740    -0.4105
  14216  H1       -14.7570   -5.2830    1.7270 H    4740  WAT4740     0.2052
  14217  H2       -14.7100   -6.6510    1.0810 H    4740  WAT4740     0.2052
  14218  O        -17.9800   -3.0370    8.5240 O.3  4741  WAT4741    -0.4105
  14219  H1       -17.6500   -3.9050    8.2920 H    4741  WAT4741     0.2052
  14220  H2       -17.5510   -2.8310    9.3540 H    4741  WAT4741     0.2052
  14221  O        -13.3840   -4.7060    6.1840 O.3  4742  WAT4742    -0.4105
  14222  H1       -13.6840   -4.8290    7.0840 H    4742  WAT4742     0.2052
  14223  H2       -13.4900   -5.5650    5.7760 H    4742  WAT4742     0.2052
  14224  O        -17.4910   -2.1700   11.2620 O.3  4743  WAT4743    -0.4105
  14225  H1       -17.9280   -1.9900   12.0940 H    4743  WAT4743     0.2052
  14226  H2       -16.9230   -1.4120   11.1200 H    4743  WAT4743     0.2052
  14227  O         -1.8550   -2.6680   15.5500 O.3  4744  WAT4744    -0.4105
  14228  H1        -2.4550   -2.6090   14.8060 H    4744  WAT4744     0.2052
  14229  H2        -1.7250   -3.6080   15.6790 H    4744  WAT4744     0.2052
  14230  O         -0.6150   -4.9260    0.8870 O.3  4745  WAT4745    -0.4105
  14231  H1        -1.4450   -4.8590    1.3570 H    4745  WAT4745     0.2052
  14232  H2        -0.4370   -4.0360    0.5830 H    4745  WAT4745     0.2052
  14233  O         -1.1590   -8.1810    3.3900 O.3  4746  WAT4746    -0.4105
  14234  H1        -0.3970   -7.6120    3.4960 H    4746  WAT4746     0.2052
  14235  H2        -1.1440   -8.7490    4.1610 H    4746  WAT4746     0.2052
  14236  O        -17.6590   -9.6580    7.6210 O.3  4747  WAT4747    -0.4105
  14237  H1       -18.3140   -9.9270    6.9770 H    4747  WAT4747     0.2052
  14238  H2       -16.8210   -9.7670    7.1710 H    4747  WAT4747     0.2052
  14239  O         -0.1530   -7.3260    8.2340 O.3  4748  WAT4748    -0.4105
  14240  H1         0.2180   -8.1100    7.8280 H    4748  WAT4748     0.2052
  14241  H2         0.4870   -6.6380    8.0560 H    4748  WAT4748     0.2052
  14242  O         -3.1700   -5.9430   13.6470 O.3  4749  WAT4749    -0.4105
  14243  H1        -3.9840   -5.5130   13.9100 H    4749  WAT4749     0.2052
  14244  H2        -2.7620   -5.3310   13.0340 H    4749  WAT4749     0.2052
  14245  O         -1.1070   -7.8880    0.5470 O.3  4750  WAT4750    -0.4105
  14246  H1        -0.8320   -6.9800    0.4190 H    4750  WAT4750     0.2052
  14247  H2        -1.2960   -7.9520    1.4830 H    4750  WAT4750     0.2052
  14248  O         -4.7090  -14.8640    1.8430 O.3  4751  WAT4751    -0.4105
  14249  H1        -4.2910  -15.0500    1.0020 H    4751  WAT4751     0.2052
  14250  H2        -5.0160  -15.7160    2.1530 H    4751  WAT4751     0.2052
  14251  O         -1.2100   -9.9510    5.5400 O.3  4752  WAT4752    -0.4105
  14252  H1        -1.5860  -10.7180    5.1080 H    4752  WAT4752     0.2052
  14253  H2        -1.9400   -9.5690    6.0280 H    4752  WAT4752     0.2052
  14254  O        -16.6210   -9.2720   12.1610 O.3  4753  WAT4753    -0.4105
  14255  H1       -16.2540   -9.3600   13.0410 H    4753  WAT4753     0.2052
  14256  H2       -17.1900  -10.0360   12.0620 H    4753  WAT4753     0.2052
  14257  O         -1.8210  -10.8040   15.1740 O.3  4754  WAT4754    -0.4105
  14258  H1        -2.0520  -11.0330   14.2740 H    4754  WAT4754     0.2052
  14259  H2        -1.5600   -9.8840   15.1290 H    4754  WAT4754     0.2052
  14260  O        -17.0690  -12.3620   16.0670 O.3  4755  WAT4755    -0.4105
  14261  H1       -17.9640  -12.3950   16.4060 H    4755  WAT4755     0.2052
  14262  H2       -16.5300  -12.1630   16.8320 H    4755  WAT4755     0.2052
  14263  O         -3.3820  -15.5780   17.9520 O.3  4756  WAT4756    -0.4105
  14264  H1        -2.5050  -15.5700   18.3360 H    4756  WAT4756     0.2052
  14265  H2        -3.3700  -16.3150   17.3410 H    4756  WAT4756     0.2052
  14266  O        -18.4450  -12.4480    3.5630 O.3  4757  WAT4757    -0.4105
  14267  H1       -19.3480  -12.1850    3.3890 H    4757  WAT4757     0.2052
  14268  H2       -17.9610  -12.1770    2.7830 H    4757  WAT4757     0.2052
  14269  O         -1.9350  -11.7250    8.8410 O.3  4758  WAT4758    -0.4105
  14270  H1        -1.4120  -12.2190    8.2100 H    4758  WAT4758     0.2052
  14271  H2        -1.3490  -11.5900    9.5860 H    4758  WAT4758     0.2052
  14272  O         -1.7560  -11.6410   12.3630 O.3  4759  WAT4759    -0.4105
  14273  H1        -2.7060  -11.6750   12.4770 H    4759  WAT4759     0.2052
  14274  H2        -1.5750  -10.7310   12.1280 H    4759  WAT4759     0.2052
  14275  O        -15.9020  -13.3910    1.4730 O.3  4760  WAT4760    -0.4105
  14276  H1       -15.1930  -13.8130    0.9880 H    4760  WAT4760     0.2052
  14277  H2       -16.6180  -13.3240    0.8410 H    4760  WAT4760     0.2052
  14278  O        -16.2550  -17.3370    0.5130 O.3  4761  WAT4761    -0.4105
  14279  H1       -15.5320  -16.7960    0.8310 H    4761  WAT4761     0.2052
  14280  H2       -15.9820  -17.6110   -0.3630 H    4761  WAT4761     0.2052
  14281  O         -2.4450  -12.4680    4.7800 O.3  4762  WAT4762    -0.4105
  14282  H1        -1.9490  -12.7010    5.5650 H    4762  WAT4762     0.2052
  14283  H2        -2.6440  -13.3070    4.3640 H    4762  WAT4762     0.2052
  14284  O        -16.5650  -18.0870   10.4150 O.3  4763  WAT4763    -0.4105
  14285  H1       -15.9180  -18.6370    9.9750 H    4763  WAT4763     0.2052
  14286  H2       -16.1450  -17.8320   11.2370 H    4763  WAT4763     0.2052
  14287  O         -1.0170  -13.8320    7.3140 O.3  4764  WAT4764    -0.4105
  14288  H1        -1.1270  -13.9860    8.2520 H    4764  WAT4764     0.2052
  14289  H2        -0.2560  -14.3600    7.0720 H    4764  WAT4764     0.2052
  14290  O         -2.6700  -17.8930   13.7720 O.3  4765  WAT4765    -0.4105
  14291  H1        -2.0330  -17.2790   14.1380 H    4765  WAT4765     0.2052
  14292  H2        -2.5230  -17.8560   12.8270 H    4765  WAT4765     0.2052
  14293  O         -0.1280  -16.0010    0.5550 O.3  4766  WAT4766    -0.4105
  14294  H1         0.7970  -16.1330    0.3460 H    4766  WAT4766     0.2052
  14295  H2        -0.1500  -15.9220    1.5080 H    4766  WAT4766     0.2052
  14296  O         -0.0540  -15.2300    3.1800 O.3  4767  WAT4767    -0.4105
  14297  H1        -0.8490  -15.2960    3.7100 H    4767  WAT4767     0.2052
  14298  H2         0.1510  -14.2950    3.1690 H    4767  WAT4767     0.2052
  14299  O         -3.1120   -1.1910    7.1740 O.3  4768  WAT4768    -0.4105
  14300  H1        -2.5160   -1.5120    6.4980 H    4768  WAT4768     0.2052
  14301  H2        -2.8540   -1.6640    7.9650 H    4768  WAT4768     0.2052
  14302  O        -16.8120  -17.9310   13.1580 O.3  4769  WAT4769    -0.4105
  14303  H1       -17.1610  -17.4750   13.9240 H    4769  WAT4769     0.2052
  14304  H2       -17.1430  -18.8250   13.2400 H    4769  WAT4769     0.2052
  14305  O        -15.2060   -4.7590   17.3230 O.3  4770  WAT4770    -0.4105
  14306  H1       -15.2490   -5.1300   18.2050 H    4770  WAT4770     0.2052
  14307  H2       -15.0750   -3.8210   17.4630 H    4770  WAT4770     0.2052
  14308  O        -11.5050   -3.2030   12.9240 O.3  4771  WAT4771    -0.4105
  14309  H1       -11.7460   -2.9360   12.0370 H    4771  WAT4771     0.2052
  14310  H2       -10.5650   -3.0330   12.9790 H    4771  WAT4771     0.2052
  14311  O         -9.3000  -16.7400   16.6800 O.3  4772  WAT4772    -0.4105
  14312  H1        -9.3610  -16.1480   17.4290 H    4772  WAT4772     0.2052
  14313  H2        -8.3600  -16.8470   16.5350 H    4772  WAT4772     0.2052
  14314  O         -6.6620  -17.0830   16.3190 O.3  4773  WAT4773    -0.4105
  14315  H1        -6.0480  -16.7650   15.6570 H    4773  WAT4773     0.2052
  14316  H2        -6.1170  -17.5680   16.9390 H    4773  WAT4773     0.2052
  14317  O         -0.2450   -1.1840   13.7250 O.3  4774  WAT4774    -0.4105
  14318  H1        -0.7390   -0.7870   13.0080 H    4774  WAT4774     0.2052
  14319  H2        -0.8530   -1.8090   14.1190 H    4774  WAT4774     0.2052
  14320  O        -16.1400  -18.4030   16.4330 O.3  4775  WAT4775    -0.4105
  14321  H1       -15.5920  -18.5850   15.6700 H    4775  WAT4775     0.2052
  14322  H2       -16.0750  -19.1940   16.9690 H    4775  WAT4775     0.2052
  14323  O        -15.3670   -1.8130   14.4430 O.3  4776  WAT4776    -0.4105
  14324  H1       -15.9610   -1.9440   15.1820 H    4776  WAT4776     0.2052
  14325  H2       -15.3750   -2.6490   13.9770 H    4776  WAT4776     0.2052
  14326  O         -5.9210  -18.5200   12.6460 O.3  4777  WAT4777    -0.4105
  14327  H1        -6.7950  -18.1860   12.4430 H    4777  WAT4777     0.2052
  14328  H2        -6.0300  -18.9920   13.4710 H    4777  WAT4777     0.2052
  14329  O         -5.0140  -16.3130   14.0300 O.3  4778  WAT4778    -0.4105
  14330  H1        -5.3430  -17.1270   13.6500 H    4778  WAT4778     0.2052
  14331  H2        -4.0660  -16.3560   13.9070 H    4778  WAT4778     0.2052
  14332  O         -2.5610   -0.5410   11.0040 O.3  4779  WAT4779    -0.4105
  14333  H1        -3.0200    0.2100   10.6300 H    4779  WAT4779     0.2052
  14334  H2        -3.1890   -1.2610   10.9450 H    4779  WAT4779     0.2052
  14335  O        -15.7360   -4.4470   13.3940 O.3  4780  WAT4780    -0.4105
  14336  H1       -16.4620   -5.0670   13.3260 H    4780  WAT4780     0.2052
  14337  H2       -15.6750   -4.0530   12.5240 H    4780  WAT4780     0.2052
  14338  O        -12.1310   -2.2330   10.1790 O.3  4781  WAT4781    -0.4105
  14339  H1       -11.6150   -2.8440    9.6540 H    4781  WAT4781     0.2052
  14340  H2       -11.4810   -1.7300   10.6700 H    4781  WAT4781     0.2052
  14341  O         -9.3920   -1.3420   11.0060 O.3  4782  WAT4782    -0.4105
  14342  H1        -9.1040   -1.5960   10.1290 H    4782  WAT4782     0.2052
  14343  H2        -8.8790   -1.8940   11.5960 H    4782  WAT4782     0.2052
  14344  O         -8.1740  -17.6030   11.5850 O.3  4783  WAT4783    -0.4105
  14345  H1        -8.9570  -17.1280   11.8650 H    4783  WAT4783     0.2052
  14346  H2        -8.4680  -18.5070   11.4770 H    4783  WAT4783     0.2052
  14347  O         -3.6220  -16.9000    9.6300 O.3  4784  WAT4784    -0.4105
  14348  H1        -3.1810  -16.9560    8.7820 H    4784  WAT4784     0.2052
  14349  H2        -3.8910  -15.9850    9.7010 H    4784  WAT4784     0.2052
  14350  O         -1.7580  -17.2690    7.6410 O.3  4785  WAT4785    -0.4105
  14351  H1        -1.8190  -18.2130    7.4940 H    4785  WAT4785     0.2052
  14352  H2        -0.9790  -17.1610    8.1860 H    4785  WAT4785     0.2052
  14353  O        -17.4530   -1.1300    6.6030 O.3  4786  WAT4786    -0.4105
  14354  H1       -17.6200   -1.7630    7.3020 H    4786  WAT4786     0.2052
  14355  H2       -18.3190   -0.9240    6.2530 H    4786  WAT4786     0.2052
  14356  O        -16.8300  -17.2980    4.1070 O.3  4787  WAT4787    -0.4105
  14357  H1       -16.0720  -17.1850    3.5330 H    4787  WAT4787     0.2052
  14358  H2       -17.2920  -16.4610    4.0610 H    4787  WAT4787     0.2052
  14359  O        -10.2880  -15.1840    7.0970 O.3  4788  WAT4788    -0.4105
  14360  H1       -11.1010  -15.5580    6.7560 H    4788  WAT4788     0.2052
  14361  H2        -9.7840  -15.9400    7.3990 H    4788  WAT4788     0.2052
  14362  O         -5.7860  -18.5200    8.3350 O.3  4789  WAT4789    -0.4105
  14363  H1        -5.1830  -17.9480    8.8100 H    4789  WAT4789     0.2052
  14364  H2        -6.5270  -17.9560    8.1130 H    4789  WAT4789     0.2052
  14365  O         -2.6430  -18.1180    3.6090 O.3  4790  WAT4790    -0.4105
  14366  H1        -2.4470  -17.2190    3.8760 H    4790  WAT4790     0.2052
  14367  H2        -3.4300  -18.3490    4.1020 H    4790  WAT4790     0.2052
  14368  O        -15.8460   -2.4360    4.0480 O.3  4791  WAT4791    -0.4105
  14369  H1       -16.3720   -2.0560    3.3450 H    4791  WAT4791     0.2052
  14370  H2       -15.9220   -1.8110    4.7690 H    4791  WAT4791     0.2052
  14371  O        -14.4570  -16.7720    2.6470 O.3  4792  WAT4792    -0.4105
  14372  H1       -13.9280  -17.5590    2.5180 H    4792  WAT4792     0.2052
  14373  H2       -13.8250  -16.0920    2.8800 H    4792  WAT4792     0.2052
  14374  O        -12.2640  -17.0340    5.7010 O.3  4793  WAT4793    -0.4105
  14375  H1       -12.8930  -17.7350    5.8680 H    4793  WAT4793     0.2052
  14376  H2       -12.8030  -16.2740    5.4850 H    4793  WAT4793     0.2052
  14377  O         -9.3240   -0.4200   18.3720 O.3  4794  WAT4794    -0.4105
  14378  H1        -8.3980   -0.6560   18.4160 H    4794  WAT4794     0.2052
  14379  H2        -9.3390    0.4070   17.8910 H    4794  WAT4794     0.2052
  14380  O         -1.0900   -0.8780    5.3700 O.3  4795  WAT4795    -0.4105
  14381  H1        -0.9150   -1.5640    4.7260 H    4795  WAT4795     0.2052
  14382  H2        -1.7880   -0.3530    4.9770 H    4795  WAT4795     0.2052
  14383  O        -12.1380  -17.7560   18.1370 O.3  4796  WAT4796    -0.4105
  14384  H1       -12.4200  -17.2520   17.3730 H    4796  WAT4796     0.2052
  14385  H2       -11.7560  -18.5530   17.7710 H    4796  WAT4796     0.2052
  14386  O        -13.2470   -0.4880    2.9230 O.3  4797  WAT4797    -0.4105
  14387  H1       -12.5150   -0.7720    2.3760 H    4797  WAT4797     0.2052
  14388  H2       -12.9880   -0.7270    3.8130 H    4797  WAT4797     0.2052
  14389  O        -14.0860   -4.3720    2.9280 O.3  4798  WAT4798    -0.4105
  14390  H1       -14.7150   -3.9030    3.4770 H    4798  WAT4798     0.2052
  14391  H2       -13.9710   -5.2170    3.3630 H    4798  WAT4798     0.2052
  14392  O         -5.5360  -18.3400   18.7150 O.3  4799  WAT4799    -0.4105
  14393  H1        -5.6500  -18.0210   19.6100 H    4799  WAT4799     0.2052
  14394  H2        -4.7200  -17.9390   18.4180 H    4799  WAT4799     0.2052
  14395  O         -2.7570   -1.1930   18.1960 O.3  4800  WAT4800    -0.4105
  14396  H1        -1.9640   -1.6880   17.9890 H    4800  WAT4800     0.2052
  14397  H2        -2.4630   -0.5140   18.8040 H    4800  WAT4800     0.2052
  14398  O         -6.6310  -10.3210  -10.9220 O.3  4801  WAT4801    -0.4105
  14399  H1        -6.7110  -11.2360  -11.1930 H    4801  WAT4801     0.2052
  14400  H2        -7.0440   -9.8240  -11.6280 H    4801  WAT4801     0.2052
  14401  O         -8.4990   -8.5430   -9.0410 O.3  4802  WAT4802    -0.4105
  14402  H1        -9.2750   -9.0230   -8.7510 H    4802  WAT4802     0.2052
  14403  H2        -7.8480   -9.2230   -9.2150 H    4802  WAT4802     0.2052
  14404  O        -14.4820   -8.2310   -8.1630 O.3  4803  WAT4803    -0.4105
  14405  H1       -15.3140   -8.4860   -7.7640 H    4803  WAT4803     0.2052
  14406  H2       -13.8740   -8.1600   -7.4280 H    4803  WAT4803     0.2052
  14407  O         -4.4780   -4.1370  -10.2610 O.3  4804  WAT4804    -0.4105
  14408  H1        -4.9400   -4.9080   -9.9320 H    4804  WAT4804     0.2052
  14409  H2        -3.6660   -4.1110   -9.7560 H    4804  WAT4804     0.2052
  14410  O        -14.5020   -4.1970   -7.9680 O.3  4805  WAT4805    -0.4105
  14411  H1       -14.1990   -5.0870   -8.1470 H    4805  WAT4805     0.2052
  14412  H2       -13.7580   -3.6400   -8.1950 H    4805  WAT4805     0.2052
  14413  O        -16.0730  -13.2710  -14.3790 O.3  4806  WAT4806    -0.4105
  14414  H1       -16.9610  -12.9290  -14.4810 H    4806  WAT4806     0.2052
  14415  H2       -15.7890  -13.4710  -15.2710 H    4806  WAT4806     0.2052
  14416  O        -18.1100  -10.6700   -8.4950 O.3  4807  WAT4807    -0.4105
  14417  H1       -17.5380  -11.4380   -8.4950 H    4807  WAT4807     0.2052
  14418  H2       -18.1100  -10.3720   -9.4050 H    4807  WAT4807     0.2052
  14419  O         -8.2520   -1.8510  -10.6410 O.3  4808  WAT4808    -0.4105
  14420  H1        -8.8710   -1.3960  -11.2110 H    4808  WAT4808     0.2052
  14421  H2        -7.3970   -1.6960  -11.0420 H    4808  WAT4808     0.2052
  14422  O         -9.0580   -5.8670   -9.0340 O.3  4809  WAT4809    -0.4105
  14423  H1        -9.1270   -6.8080   -9.1950 H    4809  WAT4809     0.2052
  14424  H2        -8.2960   -5.7770   -8.4620 H    4809  WAT4809     0.2052
  14425  O        -16.8670  -15.2620   -6.7080 O.3  4810  WAT4810    -0.4105
  14426  H1       -17.0470  -16.1590   -6.4280 H    4810  WAT4810     0.2052
  14427  H2       -17.2690  -14.7150   -6.0340 H    4810  WAT4810     0.2052
  14428  O         -8.0270  -13.0600   -8.8070 O.3  4811  WAT4811    -0.4105
  14429  H1        -7.6510  -13.9330   -8.9200 H    4811  WAT4811     0.2052
  14430  H2        -8.1250  -12.7250   -9.6980 H    4811  WAT4811     0.2052
  14431  O        -13.8970  -14.6880  -13.3450 O.3  4812  WAT4812    -0.4105
  14432  H1       -13.7900  -13.7870  -13.0380 H    4812  WAT4812     0.2052
  14433  H2       -14.8080  -14.7360  -13.6360 H    4812  WAT4812     0.2052
  14434  O         -4.2450  -15.5650  -11.8740 O.3  4813  WAT4813    -0.4105
  14435  H1        -3.4240  -16.0560  -11.8320 H    4813  WAT4813     0.2052
  14436  H2        -4.2120  -14.9760  -11.1210 H    4813  WAT4813     0.2052
  14437  O        -16.2490  -12.7660   -8.1000 O.3  4814  WAT4814    -0.4105
  14438  H1       -15.5680  -12.5020   -7.4810 H    4814  WAT4814     0.2052
  14439  H2       -16.5640  -13.6060   -7.7660 H    4814  WAT4814     0.2052
  14440  O        -12.0560  -11.7190   -9.0130 O.3  4815  WAT4815    -0.4105
  14441  H1       -11.5480  -11.2210   -8.3720 H    4815  WAT4815     0.2052
  14442  H2       -11.5250  -12.4960   -9.1890 H    4815  WAT4815     0.2052
  14443  O          0.0450  -13.5490   -5.3100 O.3  4816  WAT4816    -0.4105
  14444  H1        -0.6600  -13.1600   -5.8280 H    4816  WAT4816     0.2052
  14445  H2         0.3110  -12.8540   -4.7080 H    4816  WAT4816     0.2052
  14446  O        -13.7730  -17.0790   -4.7460 O.3  4817  WAT4817    -0.4105
  14447  H1       -13.7710  -16.5620   -5.5520 H    4817  WAT4817     0.2052
  14448  H2       -14.6020  -17.5560   -4.7690 H    4817  WAT4817     0.2052
  14449  O         -7.3850   -6.9670  -13.2470 O.3  4818  WAT4818    -0.4105
  14450  H1        -8.0040   -6.5020  -13.8110 H    4818  WAT4818     0.2052
  14451  H2        -6.8730   -6.2750  -12.8310 H    4818  WAT4818     0.2052
  14452  O        -12.5220   -7.4400   -6.5690 O.3  4819  WAT4819    -0.4105
  14453  H1       -12.8550   -6.8130   -5.9270 H    4819  WAT4819     0.2052
  14454  H2       -12.3460   -6.9140   -7.3490 H    4819  WAT4819     0.2052
  14455  O         -4.0090  -13.6250   -9.1010 O.3  4820  WAT4820    -0.4105
  14456  H1        -4.7130  -13.3370   -8.5210 H    4820  WAT4820     0.2052
  14457  H2        -3.6480  -12.8150   -9.4620 H    4820  WAT4820     0.2052
  14458  O        -14.0910  -15.3680   -6.7390 O.3  4821  WAT4821    -0.4105
  14459  H1       -13.7490  -14.5240   -7.0340 H    4821  WAT4821     0.2052
  14460  H2       -15.0290  -15.2200   -6.6230 H    4821  WAT4821     0.2052
  14461  O        -13.3100   -5.4720   -4.7540 O.3  4822  WAT4822    -0.4105
  14462  H1       -12.6930   -4.7970   -5.0360 H    4822  WAT4822     0.2052
  14463  H2       -14.1710   -5.0630   -4.8450 H    4822  WAT4822     0.2052
  14464  O        -18.0170   -6.2820  -15.8740 O.3  4823  WAT4823    -0.4105
  14465  H1       -18.3940   -5.7930  -16.6050 H    4823  WAT4823     0.2052
  14466  H2       -17.7600   -5.6090  -15.2430 H    4823  WAT4823     0.2052
  14467  O         -2.3930   -4.0080   -6.8390 O.3  4824  WAT4824    -0.4105
  14468  H1        -3.0760   -3.3380   -6.8470 H    4824  WAT4824     0.2052
  14469  H2        -1.8530   -3.8100   -7.6040 H    4824  WAT4824     0.2052
  14470  O         -0.9400  -14.1800   -8.7110 O.3  4825  WAT4825    -0.4105
  14471  H1        -1.8880  -14.1460   -8.5790 H    4825  WAT4825     0.2052
  14472  H2        -0.6150  -13.3660   -8.3260 H    4825  WAT4825     0.2052
  14473  O        -10.4080  -17.8800  -10.4150 O.3  4826  WAT4826    -0.4105
  14474  H1       -10.1010  -18.4350  -11.1310 H    4826  WAT4826     0.2052
  14475  H2       -11.3380  -17.7460  -10.5980 H    4826  WAT4826     0.2052
  14476  O         -4.8570   -2.1630   -8.1240 O.3  4827  WAT4827    -0.4105
  14477  H1        -4.8440   -2.5670   -8.9920 H    4827  WAT4827     0.2052
  14478  H2        -5.4090   -1.3890   -8.2280 H    4827  WAT4827     0.2052
  14479  O         -3.5620   -5.4420  -13.0350 O.3  4828  WAT4828    -0.4105
  14480  H1        -3.6730   -6.3840  -12.9100 H    4828  WAT4828     0.2052
  14481  H2        -3.5650   -5.0800  -12.1490 H    4828  WAT4828     0.2052
  14482  O         -5.4580   -7.2600   -6.7960 O.3  4829  WAT4829    -0.4105
  14483  H1        -5.0410   -7.4740   -7.6310 H    4829  WAT4829     0.2052
  14484  H2        -4.7340   -7.0030   -6.2250 H    4829  WAT4829     0.2052
  14485  O         -8.0200   -9.8150  -13.6790 O.3  4830  WAT4830    -0.4105
  14486  H1        -8.9470   -9.8810  -13.4500 H    4830  WAT4830     0.2052
  14487  H2        -7.8680   -8.8770  -13.7930 H    4830  WAT4830     0.2052
  14488  O         -8.0330  -13.5440  -16.6820 O.3  4831  WAT4831    -0.4105
  14489  H1        -8.9730  -13.3820  -16.5970 H    4831  WAT4831     0.2052
  14490  H2        -7.7150  -12.8250  -17.2290 H    4831  WAT4831     0.2052
  14491  O         -1.5120   -8.8620   -6.7040 O.3  4832  WAT4832    -0.4105
  14492  H1        -2.3400   -8.7920   -7.1790 H    4832  WAT4832     0.2052
  14493  H2        -0.9170   -8.2760   -7.1730 H    4832  WAT4832     0.2052
  14494  O         -3.9900   -8.2530  -13.1750 O.3  4833  WAT4833    -0.4105
  14495  H1        -4.6090   -8.5910  -13.8230 H    4833  WAT4833     0.2052
  14496  H2        -4.0080   -8.8970  -12.4670 H    4833  WAT4833     0.2052
  14497  O         -4.5480  -12.0750   -5.7590 O.3  4834  WAT4834    -0.4105
  14498  H1        -4.9610  -11.2490   -5.5050 H    4834  WAT4834     0.2052
  14499  H2        -5.2800  -12.6600   -5.9510 H    4834  WAT4834     0.2052
  14500  O        -12.4140   -9.2890  -10.8970 O.3  4835  WAT4835    -0.4105
  14501  H1       -12.8190  -10.0010  -11.3920 H    4835  WAT4835     0.2052
  14502  H2       -12.3280   -9.6330  -10.0080 H    4835  WAT4835     0.2052
  14503  O        -11.9460   -5.6020   -8.7330 O.3  4836  WAT4836    -0.4105
  14504  H1       -12.2430   -6.2070   -9.4120 H    4836  WAT4836     0.2052
  14505  H2       -10.9960   -5.5640   -8.8440 H    4836  WAT4836     0.2052
  14506  O        -13.7020  -12.5140   -7.1170 O.3  4837  WAT4837    -0.4105
  14507  H1       -13.1500  -12.4050   -7.8920 H    4837  WAT4837     0.2052
  14508  H2       -13.1870  -12.1410   -6.4020 H    4837  WAT4837     0.2052
  14509  O         -3.8580   -2.0290   -5.0710 O.3  4838  WAT4838    -0.4105
  14510  H1        -4.3350   -1.2220   -5.2630 H    4838  WAT4838     0.2052
  14511  H2        -4.5420   -2.6810   -4.9180 H    4838  WAT4838     0.2052
  14512  O        -12.8540   -5.8640   -2.0820 O.3  4839  WAT4839    -0.4105
  14513  H1       -13.7520   -5.6400   -1.8350 H    4839  WAT4839     0.2052
  14514  H2       -12.8290   -5.7400   -3.0310 H    4839  WAT4839     0.2052
  14515  O         -5.8140   -9.0150  -16.1680 O.3  4840  WAT4840    -0.4105
  14516  H1        -5.3750   -9.8520  -16.3140 H    4840  WAT4840     0.2052
  14517  H2        -5.1010   -8.3820  -16.0820 H    4840  WAT4840     0.2052
  14518  O        -14.0270   -8.9920   -3.5070 O.3  4841  WAT4841    -0.4105
  14519  H1       -14.1670   -8.1200   -3.1380 H    4841  WAT4841     0.2052
  14520  H2       -14.9090   -9.3350   -3.6520 H    4841  WAT4841     0.2052
  14521  O         -7.7040   -4.0750  -12.2000 O.3  4842  WAT4842    -0.4105
  14522  H1        -7.2650   -3.3320  -12.6140 H    4842  WAT4842     0.2052
  14523  H2        -7.7660   -3.8320  -11.2760 H    4842  WAT4842     0.2052
  14524  O        -12.2290   -3.0500   -1.2980 O.3  4843  WAT4843    -0.4105
  14525  H1       -12.2580   -2.6460   -2.1650 H    4843  WAT4843     0.2052
  14526  H2       -12.3930   -3.9790   -1.4610 H    4843  WAT4843     0.2052
  14527  O         -2.2320  -17.7600  -17.8540 O.3  4844  WAT4844    -0.4105
  14528  H1        -2.5450  -17.6680  -16.9540 H    4844  WAT4844     0.2052
  14529  H2        -1.4710  -17.1820  -17.9040 H    4844  WAT4844     0.2052
  14530  O        -15.7140  -10.3940  -13.3960 O.3  4845  WAT4845    -0.4105
  14531  H1       -15.8340   -9.6680  -14.0080 H    4845  WAT4845     0.2052
  14532  H2       -16.0240  -11.1640  -13.8740 H    4845  WAT4845     0.2052
  14533  O         -0.2780   -2.2680   -0.0020 O.3  4846  WAT4846    -0.4105
  14534  H1         0.1980   -1.7890    0.6770 H    4846  WAT4846     0.2052
  14535  H2         0.3430   -2.3360   -0.7270 H    4846  WAT4846     0.2052
  14536  O        -18.0750   -7.2230   -7.5890 O.3  4847  WAT4847    -0.4105
  14537  H1       -17.9970   -7.0880   -8.5340 H    4847  WAT4847     0.2052
  14538  H2       -17.4610   -7.9310   -7.3970 H    4847  WAT4847     0.2052
  14539  O        -16.8310   -5.5230  -11.1790 O.3  4848  WAT4848    -0.4105
  14540  H1       -17.2380   -5.3810  -12.0330 H    4848  WAT4848     0.2052
  14541  H2       -15.9390   -5.8070  -11.3820 H    4848  WAT4848     0.2052
  14542  O         -0.8750   -5.0760   -2.8420 O.3  4849  WAT4849    -0.4105
  14543  H1        -0.7480   -5.3150   -3.7600 H    4849  WAT4849     0.2052
  14544  H2        -0.8320   -5.9080   -2.3690 H    4849  WAT4849     0.2052
  14545  O         -7.0130   -1.3740   -4.2720 O.3  4850  WAT4850    -0.4105
  14546  H1        -6.4980   -1.4630   -3.4700 H    4850  WAT4850     0.2052
  14547  H2        -7.8560   -1.0280   -3.9790 H    4850  WAT4850     0.2052
  14548  O         -5.0370   -1.0880  -14.8440 O.3  4851  WAT4851    -0.4105
  14549  H1        -5.1970   -1.3780  -13.9460 H    4851  WAT4851     0.2052
  14550  H2        -5.2030   -1.8640  -15.3790 H    4851  WAT4851     0.2052
  14551  O        -12.5590   -1.3080  -13.0670 O.3  4852  WAT4852    -0.4105
  14552  H1       -12.7340   -2.2250  -13.2800 H    4852  WAT4852     0.2052
  14553  H2       -13.4130   -0.9490  -12.8270 H    4852  WAT4852     0.2052
  14554  O         -5.3350   -3.5790  -16.2840 O.3  4853  WAT4853    -0.4105
  14555  H1        -6.0280   -3.5820  -16.9440 H    4853  WAT4853     0.2052
  14556  H2        -4.5930   -4.0030  -16.7140 H    4853  WAT4853     0.2052
  14557  O         -5.7700   -1.9530  -12.2090 O.3  4854  WAT4854    -0.4105
  14558  H1        -5.3140   -2.7340  -11.8950 H    4854  WAT4854     0.2052
  14559  H2        -5.4310   -1.2420  -11.6650 H    4854  WAT4854     0.2052
  14560  O         -1.0220  -13.0230   -1.8770 O.3  4855  WAT4855    -0.4105
  14561  H1        -1.6380  -12.5150   -2.4050 H    4855  WAT4855     0.2052
  14562  H2        -1.3420  -13.9230   -1.9340 H    4855  WAT4855     0.2052
  14563  O        -18.0200   -6.1810   -5.0500 O.3  4856  WAT4856    -0.4105
  14564  H1       -17.8560   -6.6510   -5.8680 H    4856  WAT4856     0.2052
  14565  H2       -17.5540   -6.6890   -4.3850 H    4856  WAT4856     0.2052
  14566  O        -13.2480  -17.0510  -10.0140 O.3  4857  WAT4857    -0.4105
  14567  H1       -13.6910  -16.2700  -10.3450 H    4857  WAT4857     0.2052
  14568  H2       -12.6890  -16.7280   -9.3070 H    4857  WAT4857     0.2052
  14569  O         -8.9610  -14.1840   -4.4100 O.3  4858  WAT4858    -0.4105
  14570  H1        -9.4230  -13.9760   -3.5980 H    4858  WAT4858     0.2052
  14571  H2        -9.3630  -14.9980   -4.7130 H    4858  WAT4858     0.2052
  14572  O         -3.9600  -12.9630   -3.2810 O.3  4859  WAT4859    -0.4105
  14573  H1        -4.8110  -13.2620   -2.9600 H    4859  WAT4859     0.2052
  14574  H2        -4.1200  -12.7190   -4.1920 H    4859  WAT4859     0.2052
  14575  O         -6.8650  -11.4630   -1.1810 O.3  4860  WAT4860    -0.4105
  14576  H1        -6.5400  -12.2960   -1.5210 H    4860  WAT4860     0.2052
  14577  H2        -6.0770  -10.9400   -1.0330 H    4860  WAT4860     0.2052
  14578  O        -10.1320  -17.4300  -15.1330 O.3  4861  WAT4861    -0.4105
  14579  H1       -10.7560  -17.4340  -14.4080 H    4861  WAT4861     0.2052
  14580  H2       -10.2190  -18.2970  -15.5300 H    4861  WAT4861     0.2052
  14581  O        -11.2100  -16.5060   -8.1550 O.3  4862  WAT4862    -0.4105
  14582  H1       -10.9130  -15.6000   -8.2360 H    4862  WAT4862     0.2052
  14583  H2       -10.6620  -16.9940   -8.7690 H    4862  WAT4862     0.2052
  14584  O        -13.4560  -11.9270  -12.2860 O.3  4863  WAT4863    -0.4105
  14585  H1       -13.6820  -12.1440  -11.3810 H    4863  WAT4863     0.2052
  14586  H2       -14.2370  -11.4950  -12.6310 H    4863  WAT4863     0.2052
  14587  O         -6.2260  -11.9210  -13.6870 O.3  4864  WAT4864    -0.4105
  14588  H1        -6.8260  -11.1970  -13.8700 H    4864  WAT4864     0.2052
  14589  H2        -5.6790  -11.9830  -14.4690 H    4864  WAT4864     0.2052
  14590  O        -11.0160  -11.0290   -1.6200 O.3  4865  WAT4865    -0.4105
  14591  H1       -11.1120  -11.9690   -1.7700 H    4865  WAT4865     0.2052
  14592  H2       -10.1730  -10.8070   -2.0150 H    4865  WAT4865     0.2052
  14593  O         -7.6200  -13.2850  -11.6560 O.3  4866  WAT4866    -0.4105
  14594  H1        -7.2270  -12.9670  -12.4700 H    4866  WAT4866     0.2052
  14595  H2        -7.2580  -14.1640  -11.5420 H    4866  WAT4866     0.2052
  14596  O        -15.8850  -14.6170   -3.4660 O.3  4867  WAT4867    -0.4105
  14597  H1       -16.2790  -13.7700   -3.2590 H    4867  WAT4867     0.2052
  14598  H2       -16.5730  -15.2550   -3.2760 H    4867  WAT4867     0.2052
  14599  O         -9.3110  -14.5340   -0.3970 O.3  4868  WAT4868    -0.4105
  14600  H1       -10.0010  -14.7270    0.2380 H    4868  WAT4868     0.2052
  14601  H2        -8.5680  -14.2510    0.1360 H    4868  WAT4868     0.2052
  14602  O        -18.5840  -16.6950   -9.4330 O.3  4869  WAT4869    -0.4105
  14603  H1       -18.8720  -16.1240   -8.7210 H    4869  WAT4869     0.2052
  14604  H2       -17.8390  -17.1740   -9.0700 H    4869  WAT4869     0.2052
  14605  O        -18.3970  -12.7530  -18.2230 O.3  4870  WAT4870    -0.4105
  14606  H1       -18.4790  -11.8100  -18.0820 H    4870  WAT4870     0.2052
  14607  H2       -18.7480  -12.8950  -19.1020 H    4870  WAT4870     0.2052
  14608  O         -7.0340  -10.6940   -7.5610 O.3  4871  WAT4871    -0.4105
  14609  H1        -7.7660  -10.1850   -7.2120 H    4871  WAT4871     0.2052
  14610  H2        -7.4320  -11.5110   -7.8620 H    4871  WAT4871     0.2052
  14611  O        -10.5970  -14.0190   -9.1560 O.3  4872  WAT4872    -0.4105
  14612  H1       -10.5930  -14.4600  -10.0060 H    4872  WAT4872     0.2052
  14613  H2        -9.7020  -13.6970   -9.0490 H    4872  WAT4872     0.2052
  14614  O        -14.7460  -14.1360  -10.1970 O.3  4873  WAT4873    -0.4105
  14615  H1       -15.0860  -13.6590   -9.4400 H    4873  WAT4873     0.2052
  14616  H2       -15.5090  -14.5900  -10.5570 H    4873  WAT4873     0.2052
  14617  O        -10.5350  -13.0170  -16.1650 O.3  4874  WAT4874    -0.4105
  14618  H1       -10.4130  -13.0590  -15.2170 H    4874  WAT4874     0.2052
  14619  H2       -10.9200  -12.1550  -16.3210 H    4874  WAT4874     0.2052
  14620  O         -6.5720  -15.2410   -8.1490 O.3  4875  WAT4875    -0.4105
  14621  H1        -6.5550  -14.7900   -7.3050 H    4875  WAT4875     0.2052
  14622  H2        -6.8200  -16.1400   -7.9360 H    4875  WAT4875     0.2052
  14623  O        -11.5230  -10.7070  -16.7670 O.3  4876  WAT4876    -0.4105
  14624  H1       -12.0910  -11.1560  -17.3930 H    4876  WAT4876     0.2052
  14625  H2       -10.8140  -10.3480  -17.3010 H    4876  WAT4876     0.2052
  14626  O         -3.1450  -17.8280   -2.3100 O.3  4877  WAT4877    -0.4105
  14627  H1        -2.8200  -18.5590   -1.7850 H    4877  WAT4877     0.2052
  14628  H2        -3.1090  -18.1460   -3.2120 H    4877  WAT4877     0.2052
  14629  O        -16.4460   -6.8060   -2.8900 O.3  4878  WAT4878    -0.4105
  14630  H1       -16.8300   -7.4470   -2.2920 H    4878  WAT4878     0.2052
  14631  H2       -16.1340   -6.1030   -2.3210 H    4878  WAT4878     0.2052
  14632  O        -10.2960   -9.9590   -7.4100 O.3  4879  WAT4879    -0.4105
  14633  H1        -9.9290  -10.4330   -6.6630 H    4879  WAT4879     0.2052
  14634  H2       -10.4850   -9.0840   -7.0690 H    4879  WAT4879     0.2052
  14635  O        -17.4320  -15.2140  -11.2800 O.3  4880  WAT4880    -0.4105
  14636  H1       -17.7170  -15.5790  -10.4420 H    4880  WAT4880     0.2052
  14637  H2       -17.4940  -15.9460  -11.8940 H    4880  WAT4880     0.2052
  14638  O        -12.5060  -10.9180   -5.0910 O.3  4881  WAT4881    -0.4105
  14639  H1       -12.8100  -10.0380   -4.8660 H    4881  WAT4881     0.2052
  14640  H2       -11.5510  -10.8580   -5.0550 H    4881  WAT4881     0.2052
  14641  O        -13.9780   -6.7120  -14.4940 O.3  4882  WAT4882    -0.4105
  14642  H1       -14.7520   -7.2520  -14.6550 H    4882  WAT4882     0.2052
  14643  H2       -13.2480   -7.2310  -14.8330 H    4882  WAT4882     0.2052
  14644  O         -3.2190   -7.7150   -8.7020 O.3  4883  WAT4883    -0.4105
  14645  H1        -2.4990   -7.2190   -9.0920 H    4883  WAT4883     0.2052
  14646  H2        -3.4210   -8.3930   -9.3460 H    4883  WAT4883     0.2052
  14647  O         -7.7580  -16.3210  -14.5590 O.3  4884  WAT4884    -0.4105
  14648  H1        -8.5720  -16.8200  -14.6340 H    4884  WAT4884     0.2052
  14649  H2        -7.9520  -15.4810  -14.9750 H    4884  WAT4884     0.2052
  14650  O         -7.8370   -7.6440   -2.8150 O.3  4885  WAT4885    -0.4105
  14651  H1        -7.9030   -8.5650   -3.0690 H    4885  WAT4885     0.2052
  14652  H2        -8.4670   -7.5470   -2.1000 H    4885  WAT4885     0.2052
  14653  O         -5.0430  -11.9490  -16.2630 O.3  4886  WAT4886    -0.4105
  14654  H1        -4.1550  -11.6380  -16.4380 H    4886  WAT4886     0.2052
  14655  H2        -5.0730  -12.8220  -16.6550 H    4886  WAT4886     0.2052
  14656  O        -13.9340   -7.0440  -10.8570 O.3  4887  WAT4887    -0.4105
  14657  H1       -13.4160   -7.8470  -10.9110 H    4887  WAT4887     0.2052
  14658  H2       -14.3860   -7.1060  -10.0150 H    4887  WAT4887     0.2052
  14659  O         -9.0470   -5.7770  -15.5840 O.3  4888  WAT4888    -0.4105
  14660  H1        -8.7060   -5.0330  -16.0790 H    4888  WAT4888     0.2052
  14661  H2        -9.8760   -5.4640  -15.2210 H    4888  WAT4888     0.2052
  14662  O        -16.4500  -10.0770   -3.9440 O.3  4889  WAT4889    -0.4105
  14663  H1       -16.8080   -9.4120   -3.3570 H    4889  WAT4889     0.2052
  14664  H2       -16.7440  -10.9090   -3.5730 H    4889  WAT4889     0.2052
  14665  O        -13.2480   -9.6190   -1.0600 O.3  4890  WAT4890    -0.4105
  14666  H1       -13.5480   -9.4730   -1.9570 H    4890  WAT4890     0.2052
  14667  H2       -12.4770  -10.1780   -1.1530 H    4890  WAT4890     0.2052
  14668  O         -7.9050   -4.8220   -3.0650 O.3  4891  WAT4891    -0.4105
  14669  H1        -7.8910   -5.7540   -3.2830 H    4891  WAT4891     0.2052
  14670  H2        -8.6130   -4.7360   -2.4260 H    4891  WAT4891     0.2052
  14671  O         -2.7720  -10.6380  -16.7950 O.3  4892  WAT4892    -0.4105
  14672  H1        -2.8550  -10.2070  -17.6450 H    4892  WAT4892     0.2052
  14673  H2        -2.0520  -10.1780  -16.3620 H    4892  WAT4892     0.2052
  14674  O         -1.6940   -8.1810   -3.7180 O.3  4893  WAT4893    -0.4105
  14675  H1        -2.4200   -7.5880   -3.9150 H    4893  WAT4893     0.2052
  14676  H2        -1.1670   -8.1890   -4.5160 H    4893  WAT4893     0.2052
  14677  O         -1.7430   -3.7840  -14.0660 O.3  4894  WAT4894    -0.4105
  14678  H1        -2.3850   -4.4380  -13.7920 H    4894  WAT4894     0.2052
  14679  H2        -2.1300   -3.3780  -14.8420 H    4894  WAT4894     0.2052
  14680  O         -6.1640   -6.4550  -10.2190 O.3  4895  WAT4895    -0.4105
  14681  H1        -5.8120   -7.0530  -10.8790 H    4895  WAT4895     0.2052
  14682  H2        -7.0480   -6.7810  -10.0480 H    4895  WAT4895     0.2052
  14683  O        -10.0780   -5.6960  -12.8120 O.3  4896  WAT4896    -0.4105
  14684  H1        -9.3910   -5.1490  -12.4310 H    4896  WAT4896     0.2052
  14685  H2       -10.8650   -5.1510  -12.7770 H    4896  WAT4896     0.2052
  14686  O        -17.9390  -10.0780  -17.3210 O.3  4897  WAT4897    -0.4105
  14687  H1       -17.0690   -9.7960  -17.0370 H    4897  WAT4897     0.2052
  14688  H2       -18.4300   -9.2650  -17.4360 H    4897  WAT4897     0.2052
  14689  O        -10.7750   -8.6910  -13.2000 O.3  4898  WAT4898    -0.4105
  14690  H1       -10.3190   -7.8800  -12.9740 H    4898  WAT4898     0.2052
  14691  H2       -11.1270   -9.0090  -12.3680 H    4898  WAT4898     0.2052
  14692  O         -8.4720   -3.1800   -5.9700 O.3  4899  WAT4899    -0.4105
  14693  H1        -7.8280   -2.9740   -5.2930 H    4899  WAT4899     0.2052
  14694  H2        -8.1090   -3.9410   -6.4230 H    4899  WAT4899     0.2052
  14695  O        -14.8740  -18.3470  -12.7270 O.3  4900  WAT4900    -0.4105
  14696  H1       -15.0030  -18.3550  -11.7790 H    4900  WAT4900     0.2052
  14697  H2       -15.6980  -18.0090  -13.0780 H    4900  WAT4900     0.2052
  14698  O         -7.1990   -5.1770   -7.2530 O.3  4901  WAT4901    -0.4105
  14699  H1        -6.5570   -5.8780   -7.1400 H    4901  WAT4901     0.2052
  14700  H2        -6.6740   -4.3970   -7.4330 H    4901  WAT4901     0.2052
  14701  O         -3.3530   -4.8920  -17.5290 O.3  4902  WAT4902    -0.4105
  14702  H1        -3.5800   -5.6090  -16.9360 H    4902  WAT4902     0.2052
  14703  H2        -3.7440   -5.1410  -18.3670 H    4902  WAT4902     0.2052
  14704  O         -5.4250   -4.3780   -4.0490 O.3  4903  WAT4903    -0.4105
  14705  H1        -5.0890   -3.7910   -3.3710 H    4903  WAT4903     0.2052
  14706  H2        -6.3450   -4.5080   -3.8190 H    4903  WAT4903     0.2052
  14707  O        -17.5720   -0.8660  -16.7540 O.3  4904  WAT4904    -0.4105
  14708  H1       -17.2120   -0.2670  -17.4090 H    4904  WAT4904     0.2052
  14709  H2       -17.7120   -0.3200  -15.9810 H    4904  WAT4904     0.2052
  14710  O        -17.8750  -16.5880   -3.2670 O.3  4905  WAT4905    -0.4105
  14711  H1       -18.5890  -16.3880   -2.6620 H    4905  WAT4905     0.2052
  14712  H2       -17.4550  -17.3640   -2.8950 H    4905  WAT4905     0.2052
  14713  O         -3.7720   -6.9750  -15.8670 O.3  4906  WAT4906    -0.4105
  14714  H1        -4.0600   -6.5140  -15.0800 H    4906  WAT4906     0.2052
  14715  H2        -2.9760   -7.4350  -15.5990 H    4906  WAT4906     0.2052
  14716  O        -17.5880   -2.6000   -2.2800 O.3  4907  WAT4907    -0.4105
  14717  H1       -17.4780   -3.5410   -2.4210 H    4907  WAT4907     0.2052
  14718  H2       -18.2390   -2.3350   -2.9290 H    4907  WAT4907     0.2052
  14719  O         -9.5960   -4.3280   -0.8800 O.3  4908  WAT4908    -0.4105
  14720  H1        -9.9170   -5.0480   -0.3360 H    4908  WAT4908     0.2052
  14721  H2       -10.2700   -3.6530   -0.8070 H    4908  WAT4908     0.2052
  14722  O        -11.5550   -3.4820  -15.9370 O.3  4909  WAT4909    -0.4105
  14723  H1       -11.5640   -2.7490  -16.5530 H    4909  WAT4909     0.2052
  14724  H2       -12.4750   -3.7290  -15.8440 H    4909  WAT4909     0.2052
  14725  O        -15.9540   -8.2610  -15.1920 O.3  4910  WAT4910    -0.4105
  14726  H1       -16.5610   -7.5210  -15.1830 H    4910  WAT4910     0.2052
  14727  H2       -15.4790   -8.1710  -16.0190 H    4910  WAT4910     0.2052
  14728  O         -6.3810  -14.0960   -5.5170 O.3  4911  WAT4911    -0.4105
  14729  H1        -6.0130  -14.9160   -5.1890 H    4911  WAT4911     0.2052
  14730  H2        -7.2410  -14.0360   -5.1010 H    4911  WAT4911     0.2052
  14731  O         -3.0150  -15.1400  -14.7080 O.3  4912  WAT4912    -0.4105
  14732  H1        -3.6430  -15.0360  -15.4220 H    4912  WAT4912     0.2052
  14733  H2        -3.5090  -14.9200  -13.9180 H    4912  WAT4912     0.2052
  14734  O         -8.5690   -3.4200  -17.2740 O.3  4913  WAT4913    -0.4105
  14735  H1        -8.4680   -3.6230  -18.2040 H    4913  WAT4913     0.2052
  14736  H2        -9.4690   -3.6740  -17.0700 H    4913  WAT4913     0.2052
  14737  O        -11.0460  -12.8620  -13.2920 O.3  4914  WAT4914    -0.4105
  14738  H1       -11.7550  -12.3930  -12.8510 H    4914  WAT4914     0.2052
  14739  H2       -10.7620  -13.5190  -12.6580 H    4914  WAT4914     0.2052
  14740  O         -9.4210  -11.4420   -5.2930 O.3  4915  WAT4915    -0.4105
  14741  H1        -8.9220  -10.9670   -4.6280 H    4915  WAT4915     0.2052
  14742  H2        -9.2780  -12.3660   -5.0860 H    4915  WAT4915     0.2052
  14743  O         -7.0150  -16.1360  -11.8530 O.3  4916  WAT4916    -0.4105
  14744  H1        -7.1380  -16.1180  -12.8020 H    4916  WAT4916     0.2052
  14745  H2        -6.0660  -16.0890  -11.7330 H    4916  WAT4916     0.2052
  14746  O         -9.9270   -0.9010  -12.5800 O.3  4917  WAT4917    -0.4105
  14747  H1        -9.6730   -0.9390  -13.5020 H    4917  WAT4917     0.2052
  14748  H2       -10.8760   -1.0280  -12.5870 H    4917  WAT4917     0.2052
  14749  O        -12.8430  -14.5530  -15.9170 O.3  4918  WAT4918    -0.4105
  14750  H1       -11.9940  -14.1160  -15.9830 H    4918  WAT4918     0.2052
  14751  H2       -13.2100  -14.2410  -15.0900 H    4918  WAT4918     0.2052
  14752  O         -2.2140  -15.2250   -4.4500 O.3  4919  WAT4919    -0.4105
  14753  H1        -2.7170  -14.4850   -4.1110 H    4919  WAT4919     0.2052
  14754  H2        -1.3980  -14.8370   -4.7660 H    4919  WAT4919     0.2052
  14755  O         -3.9220   -9.9820  -11.0040 O.3  4920  WAT4920    -0.4105
  14756  H1        -4.8630   -9.9670  -10.8290 H    4920  WAT4920     0.2052
  14757  H2        -3.6070  -10.7680  -10.5580 H    4920  WAT4920     0.2052
  14758  O        -13.9440   -8.3000  -17.4430 O.3  4921  WAT4921    -0.4105
  14759  H1       -13.1770   -8.4120  -16.8810 H    4921  WAT4921     0.2052
  14760  H2       -13.8660   -8.9960  -18.0960 H    4921  WAT4921     0.2052
  14761  O        -15.2490  -10.8670  -16.7600 O.3  4922  WAT4922    -0.4105
  14762  H1       -15.1690  -11.8150  -16.6480 H    4922  WAT4922     0.2052
  14763  H2       -14.3570  -10.5370  -16.6540 H    4922  WAT4922     0.2052
  14764  O         -1.9190   -2.8110   -9.3280 O.3  4923  WAT4923    -0.4105
  14765  H1        -1.7950   -1.9880   -8.8560 H    4923  WAT4923     0.2052
  14766  H2        -1.0530   -3.0220   -9.6760 H    4923  WAT4923     0.2052
  14767  O        -14.4470   -0.7180   -9.6570 O.3  4924  WAT4924    -0.4105
  14768  H1       -13.7110   -1.2660   -9.3860 H    4924  WAT4924     0.2052
  14769  H2       -14.0630    0.1480   -9.7960 H    4924  WAT4924     0.2052
  14770  O        -17.5630   -4.6500  -13.7830 O.3  4925  WAT4925    -0.4105
  14771  H1       -18.4890   -4.4080  -13.7920 H    4925  WAT4925     0.2052
  14772  H2       -17.0970   -3.8230  -13.9040 H    4925  WAT4925     0.2052
  14773  O        -15.4420   -1.5330   -0.4680 O.3  4926  WAT4926    -0.4105
  14774  H1       -14.6400   -1.2120   -0.0550 H    4926  WAT4926     0.2052
  14775  H2       -15.9560   -1.8940    0.2540 H    4926  WAT4926     0.2052
  14776  O        -11.3370   -1.5450  -17.8340 O.3  4927  WAT4927    -0.4105
  14777  H1       -10.5440   -1.2560  -18.2860 H    4927  WAT4927     0.2052
  14778  H2       -11.8570   -1.9760  -18.5130 H    4927  WAT4927     0.2052
  14779  O         -6.6050   -5.4250   -0.5210 O.3  4928  WAT4928    -0.4105
  14780  H1        -7.2110   -5.4020   -1.2610 H    4928  WAT4928     0.2052
  14781  H2        -6.9100   -6.1570    0.0160 H    4928  WAT4928     0.2052
  14782  O         -5.1750   -1.6970   -1.9100 O.3  4929  WAT4929    -0.4105
  14783  H1        -4.2230   -1.7810   -1.9600 H    4929  WAT4929     0.2052
  14784  H2        -5.3220   -1.0330   -1.2360 H    4929  WAT4929     0.2052
  14785  O         -2.2840   -2.3180  -16.4100 O.3  4930  WAT4930    -0.4105
  14786  H1        -2.5700   -2.7310  -17.2250 H    4930  WAT4930     0.2052
  14787  H2        -2.4820   -1.3890  -16.5300 H    4930  WAT4930     0.2052
  14788  O        -17.7220   -9.0460   -1.5250 O.3  4931  WAT4931    -0.4105
  14789  H1       -17.2180   -9.6250   -0.9530 H    4931  WAT4931     0.2052
  14790  H2       -18.4610   -8.7620   -0.9870 H    4931  WAT4931     0.2052
  14791  O        -10.8200   -6.3240  -17.9700 O.3  4932  WAT4932    -0.4105
  14792  H1       -10.9240   -6.9390  -17.2440 H    4932  WAT4932     0.2052
  14793  H2       -10.9870   -6.8480  -18.7540 H    4932  WAT4932     0.2052
  14794  O        -10.6680   -7.6390   -1.9910 O.3  4933  WAT4933    -0.4105
  14795  H1       -11.4340   -7.0700   -2.0760 H    4933  WAT4933     0.2052
  14796  H2       -10.4860   -7.9310   -2.8840 H    4933  WAT4933     0.2052
  14797  O         -7.5790   -7.2620  -17.3660 O.3  4934  WAT4934    -0.4105
  14798  H1        -8.1280   -6.8150  -16.7210 H    4934  WAT4934     0.2052
  14799  H2        -6.9570   -7.7670  -16.8420 H    4934  WAT4934     0.2052
  14800  O         -3.5260   -5.9080   -1.4340 O.3  4935  WAT4935    -0.4105
  14801  H1        -2.7850   -5.5710   -1.9370 H    4935  WAT4935     0.2052
  14802  H2        -4.2880   -5.7390   -1.9870 H    4935  WAT4935     0.2052
  14803  O        -15.6900  -10.9030   -0.6300 O.3  4936  WAT4936    -0.4105
  14804  H1       -15.6490  -11.2010    0.2790 H    4936  WAT4936     0.2052
  14805  H2       -14.8350  -10.5020   -0.7890 H    4936  WAT4936     0.2052
  14806  O        -11.9120   -8.3030  -15.4690 O.3  4937  WAT4937    -0.4105
  14807  H1       -11.4900   -8.4690  -14.6260 H    4937  WAT4937     0.2052
  14808  H2       -11.7870   -9.1130  -15.9640 H    4937  WAT4937     0.2052
  14809  O        -13.7490  -12.3240   -2.6620 O.3  4938  WAT4938    -0.4105
  14810  H1       -14.2790  -12.8150   -3.2900 H    4938  WAT4938     0.2052
  14811  H2       -13.0800  -11.8950   -3.1960 H    4938  WAT4938     0.2052
  14812  O         -9.3990   -9.2800  -18.2210 O.3  4939  WAT4939    -0.4105
  14813  H1        -8.8780   -9.9950  -18.5870 H    4939  WAT4939     0.2052
  14814  H2        -8.7520   -8.6410  -17.9210 H    4939  WAT4939     0.2052
  14815  O         -4.8510   -7.8570   -2.8980 O.3  4940  WAT4940    -0.4105
  14816  H1        -4.4370   -7.7020   -2.0490 H    4940  WAT4940     0.2052
  14817  H2        -5.7860   -7.7310   -2.7350 H    4940  WAT4940     0.2052
  14818  O         -4.3790  -10.5170   -0.8940 O.3  4941  WAT4941    -0.4105
  14819  H1        -3.7970  -11.2720   -0.9820 H    4941  WAT4941     0.2052
  14820  H2        -4.2030   -9.9860   -1.6710 H    4941  WAT4941     0.2052
  14821  O        -13.2620  -15.3570   -2.5820 O.3  4942  WAT4942    -0.4105
  14822  H1       -13.3560  -15.9750   -3.3070 H    4942  WAT4942     0.2052
  14823  H2       -13.8420  -14.6310   -2.8090 H    4942  WAT4942     0.2052
  14824  O        -10.4960  -16.8000   -5.5500 O.3  4943  WAT4943    -0.4105
  14825  H1       -10.9440  -16.7780   -6.3950 H    4943  WAT4943     0.2052
  14826  H2       -11.1290  -17.1980   -4.9530 H    4943  WAT4943     0.2052
  14827  O        -10.0900   -7.9050   -4.9280 O.3  4944  WAT4944    -0.4105
  14828  H1        -9.6710   -7.0610   -5.1010 H    4944  WAT4944     0.2052
  14829  H2       -11.0090   -7.7670   -5.1580 H    4944  WAT4944     0.2052
  14830  O         -7.7530  -10.1730   -3.5450 O.3  4945  WAT4945    -0.4105
  14831  H1        -7.6340  -10.7690   -2.8050 H    4945  WAT4945     0.2052
  14832  H2        -6.8940  -10.1360   -3.9640 H    4945  WAT4945     0.2052
  14833  O         -5.4140   -9.6190   -4.9680 O.3  4946  WAT4946    -0.4105
  14834  H1        -5.9410   -9.0950   -5.5720 H    4946  WAT4946     0.2052
  14835  H2        -5.0710   -8.9870   -4.3370 H    4946  WAT4946     0.2052
  14836  O        -13.0160  -12.2300  -18.5230 O.3  4947  WAT4947    -0.4105
  14837  H1       -13.2170  -13.0930  -18.1620 H    4947  WAT4947     0.2052
  14838  H2       -13.1870  -12.3170  -19.4610 H    4947  WAT4947     0.2052
  14839  O        -12.2390   -1.5990   -3.8130 O.3  4948  WAT4948    -0.4105
  14840  H1       -12.7770   -0.8750   -4.1320 H    4948  WAT4948     0.2052
  14841  H2       -11.9860   -2.0760   -4.6030 H    4948  WAT4948     0.2052
  14842  O        -10.9860  -13.6310   -2.2870 O.3  4949  WAT4949    -0.4105
  14843  H1       -10.3960  -13.9390   -1.5990 H    4949  WAT4949     0.2052
  14844  H2       -11.8040  -14.1030   -2.1310 H    4949  WAT4949     0.2052
  14845  O         -6.1670  -14.0140   -2.0540 O.3  4950  WAT4950    -0.4105
  14846  H1        -6.8560  -14.6760   -2.1190 H    4950  WAT4950     0.2052
  14847  H2        -5.4460  -14.4600   -1.6090 H    4950  WAT4950     0.2052
  14848  O         -5.5370  -17.4190  -15.9950 O.3  4951  WAT4951    -0.4105
  14849  H1        -5.2570  -18.2620  -15.6390 H    4951  WAT4951     0.2052
  14850  H2        -6.3100  -17.1870  -15.4810 H    4951  WAT4951     0.2052
  14851  O        -14.2180  -15.1300  -18.5360 O.3  4952  WAT4952    -0.4105
  14852  H1       -13.9150  -15.1230  -19.4440 H    4952  WAT4952     0.2052
  14853  H2       -13.4780  -15.4800  -18.0390 H    4952  WAT4952     0.2052
  14854  O         -9.3830   -0.3640   -3.5540 O.3  4953  WAT4953    -0.4105
  14855  H1        -9.4570    0.5390   -3.2470 H    4953  WAT4953     0.2052
  14856  H2       -10.2850   -0.6830   -3.5820 H    4953  WAT4953     0.2052
  14857  O        -10.9990  -16.1860  -17.5500 O.3  4954  WAT4954    -0.4105
  14858  H1       -11.3470  -16.8640  -18.1300 H    4954  WAT4954     0.2052
  14859  H2       -10.7980  -16.6470  -16.7360 H    4954  WAT4954     0.2052
  14860  O         -8.8340   -1.1980  -15.9310 O.3  4955  WAT4955    -0.4105
  14861  H1        -7.9390   -0.8600  -15.9090 H    4955  WAT4955     0.2052
  14862  H2        -8.8020   -1.9200  -16.5590 H    4955  WAT4955     0.2052
  14863  O        -15.1950   -5.8260  -17.7030 O.3  4956  WAT4956    -0.4105
  14864  H1       -14.7570   -5.2830  -17.0470 H    4956  WAT4956     0.2052
  14865  H2       -14.7100   -6.6510  -17.6930 H    4956  WAT4956     0.2052
  14866  O        -17.9800   -3.0370  -10.2510 O.3  4957  WAT4957    -0.4105
  14867  H1       -17.6500   -3.9050  -10.4830 H    4957  WAT4957     0.2052
  14868  H2       -17.5510   -2.8310   -9.4200 H    4957  WAT4957     0.2052
  14869  O        -13.3840   -4.7060  -12.5900 O.3  4958  WAT4958    -0.4105
  14870  H1       -13.6840   -4.8290  -11.6900 H    4958  WAT4958     0.2052
  14871  H2       -13.4900   -5.5650  -12.9990 H    4958  WAT4958     0.2052
  14872  O        -17.4910   -2.1700   -7.5120 O.3  4959  WAT4959    -0.4105
  14873  H1       -17.9280   -1.9900   -6.6800 H    4959  WAT4959     0.2052
  14874  H2       -16.9230   -1.4120   -7.6540 H    4959  WAT4959     0.2052
  14875  O         -1.8550   -2.6680   -3.2250 O.3  4960  WAT4960    -0.4105
  14876  H1        -2.4550   -2.6090   -3.9680 H    4960  WAT4960     0.2052
  14877  H2        -1.7250   -3.6080   -3.0950 H    4960  WAT4960     0.2052
  14878  O         -0.6150   -4.9260  -17.8880 O.3  4961  WAT4961    -0.4105
  14879  H1        -1.4450   -4.8590  -17.4170 H    4961  WAT4961     0.2052
  14880  H2        -0.4370   -4.0360  -18.1910 H    4961  WAT4961     0.2052
  14881  O         -1.1590   -8.1810  -15.3840 O.3  4962  WAT4962    -0.4105
  14882  H1        -0.3970   -7.6120  -15.2780 H    4962  WAT4962     0.2052
  14883  H2        -1.1440   -8.7490  -14.6130 H    4962  WAT4962     0.2052
  14884  O        -17.6590   -9.6580  -11.1540 O.3  4963  WAT4963    -0.4105
  14885  H1       -18.3140   -9.9270  -11.7980 H    4963  WAT4963     0.2052
  14886  H2       -16.8210   -9.7670  -11.6030 H    4963  WAT4963     0.2052
  14887  O         -0.1530   -7.3260  -10.5400 O.3  4964  WAT4964    -0.4105
  14888  H1         0.2180   -8.1100  -10.9470 H    4964  WAT4964     0.2052
  14889  H2         0.4870   -6.6380  -10.7180 H    4964  WAT4964     0.2052
  14890  O         -3.1700   -5.9430   -5.1270 O.3  4965  WAT4965    -0.4105
  14891  H1        -3.9840   -5.5130   -4.8650 H    4965  WAT4965     0.2052
  14892  H2        -2.7620   -5.3310   -5.7400 H    4965  WAT4965     0.2052
  14893  O         -1.1070   -7.8880  -18.2270 O.3  4966  WAT4966    -0.4105
  14894  H1        -0.8320   -6.9800  -18.3550 H    4966  WAT4966     0.2052
  14895  H2        -1.2960   -7.9520  -17.2910 H    4966  WAT4966     0.2052
  14896  O         -4.7090  -14.8640  -16.9320 O.3  4967  WAT4967    -0.4105
  14897  H1        -4.2910  -15.0500  -17.7720 H    4967  WAT4967     0.2052
  14898  H2        -5.0160  -15.7160  -16.6210 H    4967  WAT4967     0.2052
  14899  O         -1.2100   -9.9510  -13.2340 O.3  4968  WAT4968    -0.4105
  14900  H1        -1.5860  -10.7180  -13.6660 H    4968  WAT4968     0.2052
  14901  H2        -1.9400   -9.5690  -12.7470 H    4968  WAT4968     0.2052
  14902  O        -16.6210   -9.2720   -6.6130 O.3  4969  WAT4969    -0.4105
  14903  H1       -16.2540   -9.3600   -5.7340 H    4969  WAT4969     0.2052
  14904  H2       -17.1900  -10.0360   -6.7130 H    4969  WAT4969     0.2052
  14905  O         -1.8210  -10.8040   -3.6000 O.3  4970  WAT4970    -0.4105
  14906  H1        -2.0520  -11.0330   -4.5000 H    4970  WAT4970     0.2052
  14907  H2        -1.5600   -9.8840   -3.6460 H    4970  WAT4970     0.2052
  14908  O        -17.0690  -12.3620   -2.7070 O.3  4971  WAT4971    -0.4105
  14909  H1       -17.9640  -12.3950   -2.3680 H    4971  WAT4971     0.2052
  14910  H2       -16.5300  -12.1630   -1.9420 H    4971  WAT4971     0.2052
  14911  O         -3.3820  -15.5780   -0.8220 O.3  4972  WAT4972    -0.4105
  14912  H1        -2.5050  -15.5700   -0.4390 H    4972  WAT4972     0.2052
  14913  H2        -3.3700  -16.3150   -1.4330 H    4972  WAT4972     0.2052
  14914  O        -18.4450  -12.4480  -15.2110 O.3  4973  WAT4973    -0.4105
  14915  H1       -19.3480  -12.1850  -15.3860 H    4973  WAT4973     0.2052
  14916  H2       -17.9610  -12.1770  -15.9910 H    4973  WAT4973     0.2052
  14917  O         -1.9350  -11.7250   -9.9330 O.3  4974  WAT4974    -0.4105
  14918  H1        -1.4120  -12.2190  -10.5640 H    4974  WAT4974     0.2052
  14919  H2        -1.3490  -11.5900   -9.1890 H    4974  WAT4974     0.2052
  14920  O         -1.7560  -11.6410   -6.4110 O.3  4975  WAT4975    -0.4105
  14921  H1        -2.7060  -11.6750   -6.2970 H    4975  WAT4975     0.2052
  14922  H2        -1.5750  -10.7310   -6.6460 H    4975  WAT4975     0.2052
  14923  O        -15.9020  -13.3910  -17.3020 O.3  4976  WAT4976    -0.4105
  14924  H1       -15.1930  -13.8130  -17.7870 H    4976  WAT4976     0.2052
  14925  H2       -16.6180  -13.3240  -17.9330 H    4976  WAT4976     0.2052
  14926  O        -16.2550  -17.3370  -18.2610 O.3  4977  WAT4977    -0.4105
  14927  H1       -15.5320  -16.7960  -17.9430 H    4977  WAT4977     0.2052
  14928  H2       -15.9820  -17.6110  -19.1370 H    4977  WAT4977     0.2052
  14929  O         -2.4450  -12.4680  -13.9940 O.3  4978  WAT4978    -0.4105
  14930  H1        -1.9490  -12.7010  -13.2090 H    4978  WAT4978     0.2052
  14931  H2        -2.6440  -13.3070  -14.4100 H    4978  WAT4978     0.2052
  14932  O        -16.5650  -18.0870   -8.3590 O.3  4979  WAT4979    -0.4105
  14933  H1       -15.9180  -18.6370   -8.8000 H    4979  WAT4979     0.2052
  14934  H2       -16.1450  -17.8320   -7.5370 H    4979  WAT4979     0.2052
  14935  O         -1.0170  -13.8320  -11.4600 O.3  4980  WAT4980    -0.4105
  14936  H1        -1.1270  -13.9860  -10.5220 H    4980  WAT4980     0.2052
  14937  H2        -0.2560  -14.3600  -11.7030 H    4980  WAT4980     0.2052
  14938  O         -2.6700  -17.8930   -5.0020 O.3  4981  WAT4981    -0.4105
  14939  H1        -2.0330  -17.2790   -4.6360 H    4981  WAT4981     0.2052
  14940  H2        -2.5230  -17.8560   -5.9470 H    4981  WAT4981     0.2052
  14941  O         -0.1280  -16.0010  -18.2200 O.3  4982  WAT4982    -0.4105
  14942  H1         0.7970  -16.1330  -18.4280 H    4982  WAT4982     0.2052
  14943  H2        -0.1500  -15.9220  -17.2660 H    4982  WAT4982     0.2052
  14944  O         -0.0540  -15.2300  -15.5940 O.3  4983  WAT4983    -0.4105
  14945  H1        -0.8490  -15.2960  -15.0650 H    4983  WAT4983     0.2052
  14946  H2         0.1510  -14.2950  -15.6060 H    4983  WAT4983     0.2052
  14947  O         -3.1120   -1.1910  -11.6000 O.3  4984  WAT4984    -0.4105
  14948  H1        -2.5160   -1.5120  -12.2770 H    4984  WAT4984     0.2052
  14949  H2        -2.8540   -1.6640  -10.8090 H    4984  WAT4984     0.2052
  14950  O        -16.8120  -17.9310   -5.6170 O.3  4985  WAT4985    -0.4105
  14951  H1       -17.1610  -17.4750   -4.8510 H    4985  WAT4985     0.2052
  14952  H2       -17.1430  -18.8250   -5.5340 H    4985  WAT4985     0.2052
  14953  O        -15.2060   -4.7590   -1.4510 O.3  4986  WAT4986    -0.4105
  14954  H1       -15.2490   -5.1300   -0.5700 H    4986  WAT4986     0.2052
  14955  H2       -15.0750   -3.8210   -1.3110 H    4986  WAT4986     0.2052
  14956  O        -11.5050   -3.2030   -5.8500 O.3  4987  WAT4987    -0.4105
  14957  H1       -11.7460   -2.9360   -6.7370 H    4987  WAT4987     0.2052
  14958  H2       -10.5650   -3.0330   -5.7950 H    4987  WAT4987     0.2052
  14959  O         -9.3000  -16.7400   -2.0950 O.3  4988  WAT4988    -0.4105
  14960  H1        -9.3610  -16.1480   -1.3450 H    4988  WAT4988     0.2052
  14961  H2        -8.3600  -16.8470   -2.2400 H    4988  WAT4988     0.2052
  14962  O         -6.6620  -17.0830   -2.4550 O.3  4989  WAT4989    -0.4105
  14963  H1        -6.0480  -16.7650   -3.1170 H    4989  WAT4989     0.2052
  14964  H2        -6.1170  -17.5680   -1.8360 H    4989  WAT4989     0.2052
  14965  O         -0.2450   -1.1840   -5.0490 O.3  4990  WAT4990    -0.4105
  14966  H1        -0.7390   -0.7870   -5.7660 H    4990  WAT4990     0.2052
  14967  H2        -0.8530   -1.8090   -4.6550 H    4990  WAT4990     0.2052
  14968  O        -16.1400  -18.4030   -2.3410 O.3  4991  WAT4991    -0.4105
  14969  H1       -15.5920  -18.5850   -3.1050 H    4991  WAT4991     0.2052
  14970  H2       -16.0750  -19.1940   -1.8060 H    4991  WAT4991     0.2052
  14971  O        -15.3670   -1.8130   -4.3310 O.3  4992  WAT4992    -0.4105
  14972  H1       -15.9610   -1.9440   -3.5920 H    4992  WAT4992     0.2052
  14973  H2       -15.3750   -2.6490   -4.7970 H    4992  WAT4992     0.2052
  14974  O         -5.9210  -18.5200   -6.1280 O.3  4993  WAT4993    -0.4105
  14975  H1        -6.7950  -18.1860   -6.3310 H    4993  WAT4993     0.2052
  14976  H2        -6.0300  -18.9920   -5.3030 H    4993  WAT4993     0.2052
  14977  O         -5.0140  -16.3130   -4.7440 O.3  4994  WAT4994    -0.4105
  14978  H1        -5.3430  -17.1270   -5.1240 H    4994  WAT4994     0.2052
  14979  H2        -4.0660  -16.3560   -4.8680 H    4994  WAT4994     0.2052
  14980  O         -2.5610   -0.5410   -7.7700 O.3  4995  WAT4995    -0.4105
  14981  H1        -3.0200    0.2100   -8.1450 H    4995  WAT4995     0.2052
  14982  H2        -3.1890   -1.2610   -7.8290 H    4995  WAT4995     0.2052
  14983  O        -15.7360   -4.4470   -5.3810 O.3  4996  WAT4996    -0.4105
  14984  H1       -16.4620   -5.0670   -5.4480 H    4996  WAT4996     0.2052
  14985  H2       -15.6750   -4.0530   -6.2510 H    4996  WAT4996     0.2052
  14986  O        -12.1310   -2.2330   -8.5960 O.3  4997  WAT4997    -0.4105
  14987  H1       -11.6150   -2.8440   -9.1210 H    4997  WAT4997     0.2052
  14988  H2       -11.4810   -1.7300   -8.1050 H    4997  WAT4997     0.2052
  14989  O         -9.3920   -1.3420   -7.7690 O.3  4998  WAT4998    -0.4105
  14990  H1        -9.1040   -1.5960   -8.6450 H    4998  WAT4998     0.2052
  14991  H2        -8.8790   -1.8940   -7.1780 H    4998  WAT4998     0.2052
  14992  O         -8.1740  -17.6030   -7.1890 O.3  4999  WAT4999    -0.4105
  14993  H1        -8.9570  -17.1280   -6.9090 H    4999  WAT4999     0.2052
  14994  H2        -8.4680  -18.5070   -7.2980 H    4999  WAT4999     0.2052
  14995  O         -3.6220  -16.9000   -9.1440 O.3  5000  WAT5000    -0.4105
  14996  H1        -3.1810  -16.9560   -9.9920 H    5000  WAT5000     0.2052
  14997  H2        -3.8910  -15.9850   -9.0730 H    5000  WAT5000     0.2052
  14998  O         -1.7580  -17.2690  -11.1330 O.3  5001  WAT5001    -0.4105
  14999  H1        -1.8190  -18.2130  -11.2800 H    5001  WAT5001     0.2052
  15000  H2        -0.9790  -17.1610  -10.5880 H    5001  WAT5001     0.2052
  15001  O        -17.4530   -1.1300  -12.1710 O.3  5002  WAT5002    -0.4105
  15002  H1       -17.6200   -1.7630  -11.4730 H    5002  WAT5002     0.2052
  15003  H2       -18.3190   -0.9240  -12.5220 H    5002  WAT5002     0.2052
  15004  O        -16.8300  -17.2980  -14.6680 O.3  5003  WAT5003    -0.4105
  15005  H1       -16.0720  -17.1850  -15.2410 H    5003  WAT5003     0.2052
  15006  H2       -17.2920  -16.4610  -14.7130 H    5003  WAT5003     0.2052
  15007  O        -10.2880  -15.1840  -11.6780 O.3  5004  WAT5004    -0.4105
  15008  H1       -11.1010  -15.5580  -12.0180 H    5004  WAT5004     0.2052
  15009  H2        -9.7840  -15.9400  -11.3750 H    5004  WAT5004     0.2052
  15010  O         -5.7860  -18.5200  -10.4390 O.3  5005  WAT5005    -0.4105
  15011  H1        -5.1830  -17.9480   -9.9640 H    5005  WAT5005     0.2052
  15012  H2        -6.5270  -17.9560  -10.6620 H    5005  WAT5005     0.2052
  15013  O         -2.6430  -18.1180  -15.1650 O.3  5006  WAT5006    -0.4105
  15014  H1        -2.4470  -17.2190  -14.8980 H    5006  WAT5006     0.2052
  15015  H2        -3.4300  -18.3490  -14.6720 H    5006  WAT5006     0.2052
  15016  O        -15.8460   -2.4360  -14.7260 O.3  5007  WAT5007    -0.4105
  15017  H1       -16.3720   -2.0560  -15.4300 H    5007  WAT5007     0.2052
  15018  H2       -15.9220   -1.8110  -14.0050 H    5007  WAT5007     0.2052
  15019  O        -14.4570  -16.7720  -16.1280 O.3  5008  WAT5008    -0.4105
  15020  H1       -13.9280  -17.5590  -16.2570 H    5008  WAT5008     0.2052
  15021  H2       -13.8250  -16.0920  -15.8940 H    5008  WAT5008     0.2052
  15022  O        -12.2640  -17.0340  -13.0730 O.3  5009  WAT5009    -0.4105
  15023  H1       -12.8930  -17.7350  -12.9060 H    5009  WAT5009     0.2052
  15024  H2       -12.8030  -16.2740  -13.2900 H    5009  WAT5009     0.2052
  15025  O         -9.3240   -0.4200   -0.4020 O.3  5010  WAT5010    -0.4105
  15026  H1        -8.3980   -0.6560   -0.3580 H    5010  WAT5010     0.2052
  15027  H2        -9.3390    0.4070   -0.8830 H    5010  WAT5010     0.2052
  15028  O         -1.0900   -0.8780  -13.4050 O.3  5011  WAT5011    -0.4105
  15029  H1        -0.9150   -1.5640  -14.0480 H    5011  WAT5011     0.2052
  15030  H2        -1.7880   -0.3530  -13.7970 H    5011  WAT5011     0.2052
  15031  O        -12.1380  -17.7560   -0.6380 O.3  5012  WAT5012    -0.4105
  15032  H1       -12.4200  -17.2520   -1.4020 H    5012  WAT5012     0.2052
  15033  H2       -11.7560  -18.5530   -1.0040 H    5012  WAT5012     0.2052
  15034  O        -13.2470   -0.4880  -15.8510 O.3  5013  WAT5013    -0.4105
  15035  H1       -12.5150   -0.7720  -16.3990 H    5013  WAT5013     0.2052
  15036  H2       -12.9880   -0.7270  -14.9610 H    5013  WAT5013     0.2052
  15037  O        -14.0860   -4.3720  -15.8460 O.3  5014  WAT5014    -0.4105
  15038  H1       -14.7150   -3.9030  -15.2980 H    5014  WAT5014     0.2052
  15039  H2       -13.9710   -5.2170  -15.4120 H    5014  WAT5014     0.2052
  15040  O         -5.5360  -18.3400   -0.0600 O.3  5015  WAT5015    -0.4105
  15041  H1        -5.6500  -18.0210    0.8350 H    5015  WAT5015     0.2052
  15042  H2        -4.7200  -17.9390   -0.3560 H    5015  WAT5015     0.2052
  15043  O         -2.7570   -1.1930   -0.5780 O.3  5016  WAT5016    -0.4105
  15044  H1        -1.9640   -1.6880   -0.7850 H    5016  WAT5016     0.2052
  15045  H2        -2.4630   -0.5140    0.0300 H    5016  WAT5016     0.2052
  15046  O         -8.4990   -8.5430  -27.8150 O.3  5017  WAT5017    -0.4105
  15047  H1        -9.2750   -9.0230  -27.5250 H    5017  WAT5017     0.2052
  15048  H2        -7.8480   -9.2230  -27.9900 H    5017  WAT5017     0.2052
  15049  O        -14.4820   -8.2310  -26.9380 O.3  5018  WAT5018    -0.4105
  15050  H1       -15.3140   -8.4860  -26.5380 H    5018  WAT5018     0.2052
  15051  H2       -13.8740   -8.1600  -26.2020 H    5018  WAT5018     0.2052
  15052  O         -4.4780   -4.1370  -29.0350 O.3  5019  WAT5019    -0.4105
  15053  H1        -4.9400   -4.9080  -28.7070 H    5019  WAT5019     0.2052
  15054  H2        -3.6660   -4.1110  -28.5300 H    5019  WAT5019     0.2052
  15055  O        -14.5020   -4.1970  -26.7420 O.3  5020  WAT5020    -0.4105
  15056  H1       -14.1990   -5.0870  -26.9210 H    5020  WAT5020     0.2052
  15057  H2       -13.7580   -3.6400  -26.9700 H    5020  WAT5020     0.2052
  15058  O        -18.1100  -10.6700  -27.2700 O.3  5021  WAT5021    -0.4105
  15059  H1       -17.5380  -11.4380  -27.2690 H    5021  WAT5021     0.2052
  15060  H2       -18.1100  -10.3720  -28.1790 H    5021  WAT5021     0.2052
  15061  O         -9.0580   -5.8670  -27.8080 O.3  5022  WAT5022    -0.4105
  15062  H1        -9.1270   -6.8080  -27.9690 H    5022  WAT5022     0.2052
  15063  H2        -8.2960   -5.7770  -27.2360 H    5022  WAT5022     0.2052
  15064  O        -16.8670  -15.2620  -25.4830 O.3  5023  WAT5023    -0.4105
  15065  H1       -17.0470  -16.1590  -25.2020 H    5023  WAT5023     0.2052
  15066  H2       -17.2690  -14.7150  -24.8080 H    5023  WAT5023     0.2052
  15067  O         -8.0270  -13.0600  -27.5810 O.3  5024  WAT5024    -0.4105
  15068  H1        -7.6510  -13.9330  -27.6940 H    5024  WAT5024     0.2052
  15069  H2        -8.1250  -12.7250  -28.4720 H    5024  WAT5024     0.2052
  15070  O        -16.2490  -12.7660  -26.8740 O.3  5025  WAT5025    -0.4105
  15071  H1       -15.5680  -12.5020  -26.2560 H    5025  WAT5025     0.2052
  15072  H2       -16.5640  -13.6060  -26.5410 H    5025  WAT5025     0.2052
  15073  O        -12.0560  -11.7190  -27.7870 O.3  5026  WAT5026    -0.4105
  15074  H1       -11.5480  -11.2210  -27.1470 H    5026  WAT5026     0.2052
  15075  H2       -11.5250  -12.4960  -27.9630 H    5026  WAT5026     0.2052
  15076  O          0.0450  -13.5490  -24.0840 O.3  5027  WAT5027    -0.4105
  15077  H1        -0.6600  -13.1600  -24.6030 H    5027  WAT5027     0.2052
  15078  H2         0.3110  -12.8540  -23.4820 H    5027  WAT5027     0.2052
  15079  O        -13.7730  -17.0790  -23.5210 O.3  5028  WAT5028    -0.4105
  15080  H1       -13.7710  -16.5620  -24.3260 H    5028  WAT5028     0.2052
  15081  H2       -14.6020  -17.5560  -23.5440 H    5028  WAT5028     0.2052
  15082  O        -12.5220   -7.4400  -25.3430 O.3  5029  WAT5029    -0.4105
  15083  H1       -12.8550   -6.8130  -24.7010 H    5029  WAT5029     0.2052
  15084  H2       -12.3460   -6.9140  -26.1230 H    5029  WAT5029     0.2052
  15085  O         -4.0090  -13.6250  -27.8760 O.3  5030  WAT5030    -0.4105
  15086  H1        -4.7130  -13.3370  -27.2960 H    5030  WAT5030     0.2052
  15087  H2        -3.6480  -12.8150  -28.2360 H    5030  WAT5030     0.2052
  15088  O        -14.0910  -15.3680  -25.5140 O.3  5031  WAT5031    -0.4105
  15089  H1       -13.7490  -14.5240  -25.8080 H    5031  WAT5031     0.2052
  15090  H2       -15.0290  -15.2200  -25.3970 H    5031  WAT5031     0.2052
  15091  O        -13.3100   -5.4720  -23.5290 O.3  5032  WAT5032    -0.4105
  15092  H1       -12.6930   -4.7970  -23.8100 H    5032  WAT5032     0.2052
  15093  H2       -14.1710   -5.0630  -23.6200 H    5032  WAT5032     0.2052
  15094  O         -2.3930   -4.0080  -25.6130 O.3  5033  WAT5033    -0.4105
  15095  H1        -3.0760   -3.3380  -25.6210 H    5033  WAT5033     0.2052
  15096  H2        -1.8530   -3.8100  -26.3790 H    5033  WAT5033     0.2052
  15097  O         -0.9400  -14.1800  -27.4850 O.3  5034  WAT5034    -0.4105
  15098  H1        -1.8880  -14.1460  -27.3530 H    5034  WAT5034     0.2052
  15099  H2        -0.6150  -13.3660  -27.1000 H    5034  WAT5034     0.2052
  15100  O        -10.4080  -17.8800  -29.1890 O.3  5035  WAT5035    -0.4105
  15101  H1       -10.1010  -18.4350  -29.9060 H    5035  WAT5035     0.2052
  15102  H2       -11.3380  -17.7460  -29.3720 H    5035  WAT5035     0.2052
  15103  O         -4.8570   -2.1630  -26.8990 O.3  5036  WAT5036    -0.4105
  15104  H1        -4.8440   -2.5670  -27.7660 H    5036  WAT5036     0.2052
  15105  H2        -5.4090   -1.3890  -27.0020 H    5036  WAT5036     0.2052
  15106  O         -5.4580   -7.2600  -25.5700 O.3  5037  WAT5037    -0.4105
  15107  H1        -5.0410   -7.4740  -26.4050 H    5037  WAT5037     0.2052
  15108  H2        -4.7340   -7.0030  -24.9990 H    5037  WAT5037     0.2052
  15109  O         -1.5120   -8.8620  -25.4790 O.3  5038  WAT5038    -0.4105
  15110  H1        -2.3400   -8.7920  -25.9540 H    5038  WAT5038     0.2052
  15111  H2        -0.9170   -8.2760  -25.9470 H    5038  WAT5038     0.2052
  15112  O         -4.5480  -12.0750  -24.5330 O.3  5039  WAT5039    -0.4105
  15113  H1        -4.9610  -11.2490  -24.2790 H    5039  WAT5039     0.2052
  15114  H2        -5.2800  -12.6600  -24.7260 H    5039  WAT5039     0.2052
  15115  O        -11.9460   -5.6020  -27.5070 O.3  5040  WAT5040    -0.4105
  15116  H1       -12.2430   -6.2070  -28.1870 H    5040  WAT5040     0.2052
  15117  H2       -10.9960   -5.5640  -27.6180 H    5040  WAT5040     0.2052
  15118  O        -13.7020  -12.5140  -25.8910 O.3  5041  WAT5041    -0.4105
  15119  H1       -13.1500  -12.4050  -26.6660 H    5041  WAT5041     0.2052
  15120  H2       -13.1870  -12.1410  -25.1760 H    5041  WAT5041     0.2052
  15121  O         -3.8580   -2.0290  -23.8450 O.3  5042  WAT5042    -0.4105
  15122  H1        -4.3350   -1.2220  -24.0380 H    5042  WAT5042     0.2052
  15123  H2        -4.5420   -2.6810  -23.6920 H    5042  WAT5042     0.2052
  15124  O        -12.8540   -5.8640  -20.8570 O.3  5043  WAT5043    -0.4105
  15125  H1       -13.7520   -5.6400  -20.6090 H    5043  WAT5043     0.2052
  15126  H2       -12.8290   -5.7400  -21.8050 H    5043  WAT5043     0.2052
  15127  O        -14.0270   -8.9920  -22.2810 O.3  5044  WAT5044    -0.4105
  15128  H1       -14.1670   -8.1200  -21.9120 H    5044  WAT5044     0.2052
  15129  H2       -14.9090   -9.3350  -22.4260 H    5044  WAT5044     0.2052
  15130  O        -12.2290   -3.0500  -20.0720 O.3  5045  WAT5045    -0.4105
  15131  H1       -12.2580   -2.6460  -20.9400 H    5045  WAT5045     0.2052
  15132  H2       -12.3930   -3.9790  -20.2350 H    5045  WAT5045     0.2052
  15133  O         -0.2780   -2.2680  -18.7760 O.3  5046  WAT5046    -0.4105
  15134  H1         0.1980   -1.7890  -18.0970 H    5046  WAT5046     0.2052
  15135  H2         0.3430   -2.3360  -19.5010 H    5046  WAT5046     0.2052
  15136  O        -18.0750   -7.2230  -26.3640 O.3  5047  WAT5047    -0.4105
  15137  H1       -17.9970   -7.0880  -27.3080 H    5047  WAT5047     0.2052
  15138  H2       -17.4610   -7.9310  -26.1710 H    5047  WAT5047     0.2052
  15139  O         -0.8750   -5.0760  -21.6160 O.3  5048  WAT5048    -0.4105
  15140  H1        -0.7480   -5.3150  -22.5340 H    5048  WAT5048     0.2052
  15141  H2        -0.8320   -5.9080  -21.1440 H    5048  WAT5048     0.2052
  15142  O         -7.0130   -1.3740  -23.0460 O.3  5049  WAT5049    -0.4105
  15143  H1        -6.4980   -1.4630  -22.2440 H    5049  WAT5049     0.2052
  15144  H2        -7.8560   -1.0280  -22.7540 H    5049  WAT5049     0.2052
  15145  O         -1.0220  -13.0230  -20.6510 O.3  5050  WAT5050    -0.4105
  15146  H1        -1.6380  -12.5150  -21.1790 H    5050  WAT5050     0.2052
  15147  H2        -1.3420  -13.9230  -20.7080 H    5050  WAT5050     0.2052
  15148  O        -18.0200   -6.1810  -23.8240 O.3  5051  WAT5051    -0.4105
  15149  H1       -17.8560   -6.6510  -24.6420 H    5051  WAT5051     0.2052
  15150  H2       -17.5540   -6.6890  -23.1590 H    5051  WAT5051     0.2052
  15151  O        -13.2480  -17.0510  -28.7880 O.3  5052  WAT5052    -0.4105
  15152  H1       -13.6910  -16.2700  -29.1200 H    5052  WAT5052     0.2052
  15153  H2       -12.6890  -16.7280  -28.0810 H    5052  WAT5052     0.2052
  15154  O         -8.9610  -14.1840  -23.1850 O.3  5053  WAT5053    -0.4105
  15155  H1        -9.4230  -13.9760  -22.3730 H    5053  WAT5053     0.2052
  15156  H2        -9.3630  -14.9980  -23.4880 H    5053  WAT5053     0.2052
  15157  O         -3.9600  -12.9630  -22.0550 O.3  5054  WAT5054    -0.4105
  15158  H1        -4.8110  -13.2620  -21.7340 H    5054  WAT5054     0.2052
  15159  H2        -4.1200  -12.7190  -22.9670 H    5054  WAT5054     0.2052
  15160  O         -6.8650  -11.4630  -19.9550 O.3  5055  WAT5055    -0.4105
  15161  H1        -6.5400  -12.2960  -20.2950 H    5055  WAT5055     0.2052
  15162  H2        -6.0770  -10.9400  -19.8070 H    5055  WAT5055     0.2052
  15163  O        -11.2100  -16.5060  -26.9290 O.3  5056  WAT5056    -0.4105
  15164  H1       -10.9130  -15.6000  -27.0100 H    5056  WAT5056     0.2052
  15165  H2       -10.6620  -16.9940  -27.5430 H    5056  WAT5056     0.2052
  15166  O        -11.0160  -11.0290  -20.3940 O.3  5057  WAT5057    -0.4105
  15167  H1       -11.1120  -11.9690  -20.5440 H    5057  WAT5057     0.2052
  15168  H2       -10.1730  -10.8070  -20.7890 H    5057  WAT5057     0.2052
  15169  O        -15.8850  -14.6170  -22.2410 O.3  5058  WAT5058    -0.4105
  15170  H1       -16.2790  -13.7700  -22.0330 H    5058  WAT5058     0.2052
  15171  H2       -16.5730  -15.2550  -22.0500 H    5058  WAT5058     0.2052
  15172  O         -9.3110  -14.5340  -19.1710 O.3  5059  WAT5059    -0.4105
  15173  H1       -10.0010  -14.7270  -18.5360 H    5059  WAT5059     0.2052
  15174  H2        -8.5680  -14.2510  -18.6390 H    5059  WAT5059     0.2052
  15175  O        -18.5840  -16.6950  -28.2080 O.3  5060  WAT5060    -0.4105
  15176  H1       -18.8720  -16.1240  -27.4950 H    5060  WAT5060     0.2052
  15177  H2       -17.8390  -17.1740  -27.8450 H    5060  WAT5060     0.2052
  15178  O         -7.0340  -10.6940  -26.3360 O.3  5061  WAT5061    -0.4105
  15179  H1        -7.7660  -10.1850  -25.9870 H    5061  WAT5061     0.2052
  15180  H2        -7.4320  -11.5110  -26.6370 H    5061  WAT5061     0.2052
  15181  O        -10.5970  -14.0190  -27.9300 O.3  5062  WAT5062    -0.4105
  15182  H1       -10.5930  -14.4600  -28.7800 H    5062  WAT5062     0.2052
  15183  H2        -9.7020  -13.6970  -27.8230 H    5062  WAT5062     0.2052
  15184  O        -14.7460  -14.1360  -28.9710 O.3  5063  WAT5063    -0.4105
  15185  H1       -15.0860  -13.6590  -28.2140 H    5063  WAT5063     0.2052
  15186  H2       -15.5090  -14.5900  -29.3310 H    5063  WAT5063     0.2052
  15187  O         -6.5720  -15.2410  -26.9230 O.3  5064  WAT5064    -0.4105
  15188  H1        -6.5550  -14.7900  -26.0790 H    5064  WAT5064     0.2052
  15189  H2        -6.8200  -16.1400  -26.7100 H    5064  WAT5064     0.2052
  15190  O         -3.1450  -17.8280  -21.0850 O.3  5065  WAT5065    -0.4105
  15191  H1        -2.8200  -18.5590  -20.5590 H    5065  WAT5065     0.2052
  15192  H2        -3.1090  -18.1460  -21.9870 H    5065  WAT5065     0.2052
  15193  O        -16.4460   -6.8060  -21.6650 O.3  5066  WAT5066    -0.4105
  15194  H1       -16.8300   -7.4470  -21.0660 H    5066  WAT5066     0.2052
  15195  H2       -16.1340   -6.1030  -21.0950 H    5066  WAT5066     0.2052
  15196  O        -10.2960   -9.9590  -26.1840 O.3  5067  WAT5067    -0.4105
  15197  H1        -9.9290  -10.4330  -25.4380 H    5067  WAT5067     0.2052
  15198  H2       -10.4850   -9.0840  -25.8430 H    5067  WAT5067     0.2052
  15199  O        -12.5060  -10.9180  -23.8650 O.3  5068  WAT5068    -0.4105
  15200  H1       -12.8100  -10.0380  -23.6400 H    5068  WAT5068     0.2052
  15201  H2       -11.5510  -10.8580  -23.8300 H    5068  WAT5068     0.2052
  15202  O         -3.2190   -7.7150  -27.4760 O.3  5069  WAT5069    -0.4105
  15203  H1        -2.4990   -7.2190  -27.8670 H    5069  WAT5069     0.2052
  15204  H2        -3.4210   -8.3930  -28.1210 H    5069  WAT5069     0.2052
  15205  O         -7.8370   -7.6440  -21.5890 O.3  5070  WAT5070    -0.4105
  15206  H1        -7.9030   -8.5650  -21.8430 H    5070  WAT5070     0.2052
  15207  H2        -8.4670   -7.5470  -20.8750 H    5070  WAT5070     0.2052
  15208  O        -13.9340   -7.0440  -29.6310 O.3  5071  WAT5071    -0.4105
  15209  H1       -13.4160   -7.8470  -29.6850 H    5071  WAT5071     0.2052
  15210  H2       -14.3860   -7.1060  -28.7890 H    5071  WAT5071     0.2052
  15211  O        -16.4500  -10.0770  -22.7180 O.3  5072  WAT5072    -0.4105
  15212  H1       -16.8080   -9.4120  -22.1310 H    5072  WAT5072     0.2052
  15213  H2       -16.7440  -10.9090  -22.3470 H    5072  WAT5072     0.2052
  15214  O        -13.2480   -9.6190  -19.8340 O.3  5073  WAT5073    -0.4105
  15215  H1       -13.5480   -9.4730  -20.7320 H    5073  WAT5073     0.2052
  15216  H2       -12.4770  -10.1780  -19.9270 H    5073  WAT5073     0.2052
  15217  O         -7.9050   -4.8220  -21.8390 O.3  5074  WAT5074    -0.4105
  15218  H1        -7.8910   -5.7540  -22.0570 H    5074  WAT5074     0.2052
  15219  H2        -8.6130   -4.7360  -21.2000 H    5074  WAT5074     0.2052
  15220  O         -1.6940   -8.1810  -22.4920 O.3  5075  WAT5075    -0.4105
  15221  H1        -2.4200   -7.5880  -22.6890 H    5075  WAT5075     0.2052
  15222  H2        -1.1670   -8.1890  -23.2910 H    5075  WAT5075     0.2052
  15223  O         -6.1640   -6.4550  -28.9940 O.3  5076  WAT5076    -0.4105
  15224  H1        -5.8120   -7.0530  -29.6530 H    5076  WAT5076     0.2052
  15225  H2        -7.0480   -6.7810  -28.8230 H    5076  WAT5076     0.2052
  15226  O         -8.4720   -3.1800  -24.7450 O.3  5077  WAT5077    -0.4105
  15227  H1        -7.8280   -2.9740  -24.0670 H    5077  WAT5077     0.2052
  15228  H2        -8.1090   -3.9410  -25.1980 H    5077  WAT5077     0.2052
  15229  O         -7.1990   -5.1770  -26.0270 O.3  5078  WAT5078    -0.4105
  15230  H1        -6.5570   -5.8780  -25.9140 H    5078  WAT5078     0.2052
  15231  H2        -6.6740   -4.3970  -26.2070 H    5078  WAT5078     0.2052
  15232  O         -5.4250   -4.3780  -22.8230 O.3  5079  WAT5079    -0.4105
  15233  H1        -5.0890   -3.7910  -22.1460 H    5079  WAT5079     0.2052
  15234  H2        -6.3450   -4.5080  -22.5940 H    5079  WAT5079     0.2052
  15235  O        -17.8750  -16.5880  -22.0410 O.3  5080  WAT5080    -0.4105
  15236  H1       -18.5890  -16.3880  -21.4360 H    5080  WAT5080     0.2052
  15237  H2       -17.4550  -17.3640  -21.6700 H    5080  WAT5080     0.2052
  15238  O        -17.5880   -2.6000  -21.0540 O.3  5081  WAT5081    -0.4105
  15239  H1       -17.4780   -3.5410  -21.1950 H    5081  WAT5081     0.2052
  15240  H2       -18.2390   -2.3350  -21.7030 H    5081  WAT5081     0.2052
  15241  O         -9.5960   -4.3280  -19.6550 O.3  5082  WAT5082    -0.4105
  15242  H1        -9.9170   -5.0480  -19.1100 H    5082  WAT5082     0.2052
  15243  H2       -10.2700   -3.6530  -19.5810 H    5082  WAT5082     0.2052
  15244  O         -6.3810  -14.0960  -24.2910 O.3  5083  WAT5083    -0.4105
  15245  H1        -6.0130  -14.9160  -23.9630 H    5083  WAT5083     0.2052
  15246  H2        -7.2410  -14.0360  -23.8750 H    5083  WAT5083     0.2052
  15247  O         -9.4210  -11.4420  -24.0670 O.3  5084  WAT5084    -0.4105
  15248  H1        -8.9220  -10.9670  -23.4020 H    5084  WAT5084     0.2052
  15249  H2        -9.2780  -12.3660  -23.8600 H    5084  WAT5084     0.2052
  15250  O         -2.2140  -15.2250  -23.2240 O.3  5085  WAT5085    -0.4105
  15251  H1        -2.7170  -14.4850  -22.8850 H    5085  WAT5085     0.2052
  15252  H2        -1.3980  -14.8370  -23.5410 H    5085  WAT5085     0.2052
  15253  O         -3.9220   -9.9820  -29.7780 O.3  5086  WAT5086    -0.4105
  15254  H1        -4.8630   -9.9670  -29.6030 H    5086  WAT5086     0.2052
  15255  H2        -3.6070  -10.7680  -29.3320 H    5086  WAT5086     0.2052
  15256  O         -1.9190   -2.8110  -28.1030 O.3  5087  WAT5087    -0.4105
  15257  H1        -1.7950   -1.9880  -27.6300 H    5087  WAT5087     0.2052
  15258  H2        -1.0530   -3.0220  -28.4500 H    5087  WAT5087     0.2052
  15259  O        -14.4470   -0.7180  -28.4310 O.3  5088  WAT5088    -0.4105
  15260  H1       -13.7110   -1.2660  -28.1600 H    5088  WAT5088     0.2052
  15261  H2       -14.0630    0.1480  -28.5700 H    5088  WAT5088     0.2052
  15262  O        -15.4420   -1.5330  -19.2430 O.3  5089  WAT5089    -0.4105
  15263  H1       -14.6400   -1.2120  -18.8290 H    5089  WAT5089     0.2052
  15264  H2       -15.9560   -1.8940  -18.5210 H    5089  WAT5089     0.2052
  15265  O         -6.6050   -5.4250  -19.2950 O.3  5090  WAT5090    -0.4105
  15266  H1        -7.2110   -5.4020  -20.0350 H    5090  WAT5090     0.2052
  15267  H2        -6.9100   -6.1570  -18.7580 H    5090  WAT5090     0.2052
  15268  O         -5.1750   -1.6970  -20.6840 O.3  5091  WAT5091    -0.4105
  15269  H1        -4.2230   -1.7810  -20.7340 H    5091  WAT5091     0.2052
  15270  H2        -5.3220   -1.0330  -20.0110 H    5091  WAT5091     0.2052
  15271  O        -17.7220   -9.0460  -20.2990 O.3  5092  WAT5092    -0.4105
  15272  H1       -17.2180   -9.6250  -19.7270 H    5092  WAT5092     0.2052
  15273  H2       -18.4610   -8.7620  -19.7610 H    5092  WAT5092     0.2052
  15274  O        -10.6680   -7.6390  -20.7650 O.3  5093  WAT5093    -0.4105
  15275  H1       -11.4340   -7.0700  -20.8500 H    5093  WAT5093     0.2052
  15276  H2       -10.4860   -7.9310  -21.6590 H    5093  WAT5093     0.2052
  15277  O         -3.5260   -5.9080  -20.2080 O.3  5094  WAT5094    -0.4105
  15278  H1        -2.7850   -5.5710  -20.7110 H    5094  WAT5094     0.2052
  15279  H2        -4.2880   -5.7390  -20.7610 H    5094  WAT5094     0.2052
  15280  O        -15.6900  -10.9030  -19.4040 O.3  5095  WAT5095    -0.4105
  15281  H1       -15.6490  -11.2010  -18.4950 H    5095  WAT5095     0.2052
  15282  H2       -14.8350  -10.5020  -19.5630 H    5095  WAT5095     0.2052
  15283  O        -13.7490  -12.3240  -21.4360 O.3  5096  WAT5096    -0.4105
  15284  H1       -14.2790  -12.8150  -22.0640 H    5096  WAT5096     0.2052
  15285  H2       -13.0800  -11.8950  -21.9710 H    5096  WAT5096     0.2052
  15286  O         -4.8510   -7.8570  -21.6720 O.3  5097  WAT5097    -0.4105
  15287  H1        -4.4370   -7.7020  -20.8230 H    5097  WAT5097     0.2052
  15288  H2        -5.7860   -7.7310  -21.5100 H    5097  WAT5097     0.2052
  15289  O         -4.3790  -10.5170  -19.6680 O.3  5098  WAT5098    -0.4105
  15290  H1        -3.7970  -11.2720  -19.7560 H    5098  WAT5098     0.2052
  15291  H2        -4.2030   -9.9860  -20.4450 H    5098  WAT5098     0.2052
  15292  O        -13.2620  -15.3570  -21.3570 O.3  5099  WAT5099    -0.4105
  15293  H1       -13.3560  -15.9750  -22.0820 H    5099  WAT5099     0.2052
  15294  H2       -13.8420  -14.6310  -21.5840 H    5099  WAT5099     0.2052
  15295  O        -10.4960  -16.8000  -24.3240 O.3  5100  WAT5100    -0.4105
  15296  H1       -10.9440  -16.7780  -25.1690 H    5100  WAT5100     0.2052
  15297  H2       -11.1290  -17.1980  -23.7270 H    5100  WAT5100     0.2052
  15298  O        -10.0900   -7.9050  -23.7030 O.3  5101  WAT5101    -0.4105
  15299  H1        -9.6710   -7.0610  -23.8750 H    5101  WAT5101     0.2052
  15300  H2       -11.0090   -7.7670  -23.9320 H    5101  WAT5101     0.2052
  15301  O         -7.7530  -10.1730  -22.3190 O.3  5102  WAT5102    -0.4105
  15302  H1        -7.6340  -10.7690  -21.5790 H    5102  WAT5102     0.2052
  15303  H2        -6.8940  -10.1360  -22.7390 H    5102  WAT5102     0.2052
  15304  O         -5.4140   -9.6190  -23.7430 O.3  5103  WAT5103    -0.4105
  15305  H1        -5.9410   -9.0950  -24.3460 H    5103  WAT5103     0.2052
  15306  H2        -5.0710   -8.9870  -23.1120 H    5103  WAT5103     0.2052
  15307  O        -12.2390   -1.5990  -22.5870 O.3  5104  WAT5104    -0.4105
  15308  H1       -12.7770   -0.8750  -22.9060 H    5104  WAT5104     0.2052
  15309  H2       -11.9860   -2.0760  -23.3770 H    5104  WAT5104     0.2052
  15310  O        -10.9860  -13.6310  -21.0610 O.3  5105  WAT5105    -0.4105
  15311  H1       -10.3960  -13.9390  -20.3740 H    5105  WAT5105     0.2052
  15312  H2       -11.8040  -14.1030  -20.9050 H    5105  WAT5105     0.2052
  15313  O         -6.1670  -14.0140  -20.8280 O.3  5106  WAT5106    -0.4105
  15314  H1        -6.8560  -14.6760  -20.8930 H    5106  WAT5106     0.2052
  15315  H2        -5.4460  -14.4600  -20.3830 H    5106  WAT5106     0.2052
  15316  O         -9.3830   -0.3640  -22.3280 O.3  5107  WAT5107    -0.4105
  15317  H1        -9.4570    0.5390  -22.0210 H    5107  WAT5107     0.2052
  15318  H2       -10.2850   -0.6830  -22.3560 H    5107  WAT5107     0.2052
  15319  O        -17.9800   -3.0370  -29.0250 O.3  5108  WAT5108    -0.4105
  15320  H1       -17.6500   -3.9050  -29.2570 H    5108  WAT5108     0.2052
  15321  H2       -17.5510   -2.8310  -28.1940 H    5108  WAT5108     0.2052
  15322  O        -17.4910   -2.1700  -26.2870 O.3  5109  WAT5109    -0.4105
  15323  H1       -17.9280   -1.9900  -25.4540 H    5109  WAT5109     0.2052
  15324  H2       -16.9230   -1.4120  -26.4290 H    5109  WAT5109     0.2052
  15325  O         -1.8550   -2.6680  -21.9990 O.3  5110  WAT5110    -0.4105
  15326  H1        -2.4550   -2.6090  -22.7430 H    5110  WAT5110     0.2052
  15327  H2        -1.7250   -3.6080  -21.8690 H    5110  WAT5110     0.2052
  15328  O         -0.1530   -7.3260  -29.3140 O.3  5111  WAT5111    -0.4105
  15329  H1         0.2180   -8.1100  -29.7210 H    5111  WAT5111     0.2052
  15330  H2         0.4870   -6.6380  -29.4930 H    5111  WAT5111     0.2052
  15331  O         -3.1700   -5.9430  -23.9010 O.3  5112  WAT5112    -0.4105
  15332  H1        -3.9840   -5.5130  -23.6390 H    5112  WAT5112     0.2052
  15333  H2        -2.7620   -5.3310  -24.5150 H    5112  WAT5112     0.2052
  15334  O        -16.6210   -9.2720  -25.3880 O.3  5113  WAT5113    -0.4105
  15335  H1       -16.2540   -9.3600  -24.5080 H    5113  WAT5113     0.2052
  15336  H2       -17.1900  -10.0360  -25.4870 H    5113  WAT5113     0.2052
  15337  O         -1.8210  -10.8040  -22.3750 O.3  5114  WAT5114    -0.4105
  15338  H1        -2.0520  -11.0330  -23.2750 H    5114  WAT5114     0.2052
  15339  H2        -1.5600   -9.8840  -22.4200 H    5114  WAT5114     0.2052
  15340  O        -17.0690  -12.3620  -21.4820 O.3  5115  WAT5115    -0.4105
  15341  H1       -17.9640  -12.3950  -21.1420 H    5115  WAT5115     0.2052
  15342  H2       -16.5300  -12.1630  -20.7170 H    5115  WAT5115     0.2052
  15343  O         -3.3820  -15.5780  -19.5970 O.3  5116  WAT5116    -0.4105
  15344  H1        -2.5050  -15.5700  -19.2130 H    5116  WAT5116     0.2052
  15345  H2        -3.3700  -16.3150  -20.2070 H    5116  WAT5116     0.2052
  15346  O         -1.9350  -11.7250  -28.7080 O.3  5117  WAT5117    -0.4105
  15347  H1        -1.4120  -12.2190  -29.3390 H    5117  WAT5117     0.2052
  15348  H2        -1.3490  -11.5900  -27.9630 H    5117  WAT5117     0.2052
  15349  O         -1.7560  -11.6410  -25.1860 O.3  5118  WAT5118    -0.4105
  15350  H1        -2.7060  -11.6750  -25.0710 H    5118  WAT5118     0.2052
  15351  H2        -1.5750  -10.7310  -25.4210 H    5118  WAT5118     0.2052
  15352  O        -16.5650  -18.0870  -27.1330 O.3  5119  WAT5119    -0.4105
  15353  H1       -15.9180  -18.6370  -27.5740 H    5119  WAT5119     0.2052
  15354  H2       -16.1450  -17.8320  -26.3120 H    5119  WAT5119     0.2052
  15355  O         -2.6700  -17.8930  -23.7760 O.3  5120  WAT5120    -0.4105
  15356  H1        -2.0330  -17.2790  -23.4110 H    5120  WAT5120     0.2052
  15357  H2        -2.5230  -17.8560  -24.7220 H    5120  WAT5120     0.2052
  15358  O        -16.8120  -17.9310  -24.3910 O.3  5121  WAT5121    -0.4105
  15359  H1       -17.1610  -17.4750  -23.6250 H    5121  WAT5121     0.2052
  15360  H2       -17.1430  -18.8250  -24.3090 H    5121  WAT5121     0.2052
  15361  O        -15.2060   -4.7590  -20.2260 O.3  5122  WAT5122    -0.4105
  15362  H1       -15.2490   -5.1300  -19.3440 H    5122  WAT5122     0.2052
  15363  H2       -15.0750   -3.8210  -20.0850 H    5122  WAT5122     0.2052
  15364  O        -11.5050   -3.2030  -24.6250 O.3  5123  WAT5123    -0.4105
  15365  H1       -11.7460   -2.9360  -25.5120 H    5123  WAT5123     0.2052
  15366  H2       -10.5650   -3.0330  -24.5690 H    5123  WAT5123     0.2052
  15367  O         -9.3000  -16.7400  -20.8690 O.3  5124  WAT5124    -0.4105
  15368  H1        -9.3610  -16.1480  -20.1190 H    5124  WAT5124     0.2052
  15369  H2        -8.3600  -16.8470  -21.0140 H    5124  WAT5124     0.2052
  15370  O         -6.6620  -17.0830  -21.2300 O.3  5125  WAT5125    -0.4105
  15371  H1        -6.0480  -16.7650  -21.8920 H    5125  WAT5125     0.2052
  15372  H2        -6.1170  -17.5680  -20.6100 H    5125  WAT5125     0.2052
  15373  O         -0.2450   -1.1840  -23.8240 O.3  5126  WAT5126    -0.4105
  15374  H1        -0.7390   -0.7870  -24.5410 H    5126  WAT5126     0.2052
  15375  H2        -0.8530   -1.8090  -23.4300 H    5126  WAT5126     0.2052
  15376  O        -16.1400  -18.4030  -21.1160 O.3  5127  WAT5127    -0.4105
  15377  H1       -15.5920  -18.5850  -21.8790 H    5127  WAT5127     0.2052
  15378  H2       -16.0750  -19.1940  -20.5800 H    5127  WAT5127     0.2052
  15379  O        -15.3670   -1.8130  -23.1060 O.3  5128  WAT5128    -0.4105
  15380  H1       -15.9610   -1.9440  -22.3670 H    5128  WAT5128     0.2052
  15381  H2       -15.3750   -2.6490  -23.5720 H    5128  WAT5128     0.2052
  15382  O         -5.9210  -18.5200  -24.9030 O.3  5129  WAT5129    -0.4105
  15383  H1        -6.7950  -18.1860  -25.1050 H    5129  WAT5129     0.2052
  15384  H2        -6.0300  -18.9920  -24.0780 H    5129  WAT5129     0.2052
  15385  O         -5.0140  -16.3130  -23.5190 O.3  5130  WAT5130    -0.4105
  15386  H1        -5.3430  -17.1270  -23.8980 H    5130  WAT5130     0.2052
  15387  H2        -4.0660  -16.3560  -23.6420 H    5130  WAT5130     0.2052
  15388  O         -2.5610   -0.5410  -26.5450 O.3  5131  WAT5131    -0.4105
  15389  H1        -3.0200    0.2100  -26.9190 H    5131  WAT5131     0.2052
  15390  H2        -3.1890   -1.2610  -26.6030 H    5131  WAT5131     0.2052
  15391  O        -15.7360   -4.4470  -24.1550 O.3  5132  WAT5132    -0.4105
  15392  H1       -16.4620   -5.0670  -24.2220 H    5132  WAT5132     0.2052
  15393  H2       -15.6750   -4.0530  -25.0250 H    5132  WAT5132     0.2052
  15394  O        -12.1310   -2.2330  -27.3700 O.3  5133  WAT5133    -0.4105
  15395  H1       -11.6150   -2.8440  -27.8950 H    5133  WAT5133     0.2052
  15396  H2       -11.4810   -1.7300  -26.8790 H    5133  WAT5133     0.2052
  15397  O         -9.3920   -1.3420  -26.5430 O.3  5134  WAT5134    -0.4105
  15398  H1        -9.1040   -1.5960  -27.4200 H    5134  WAT5134     0.2052
  15399  H2        -8.8790   -1.8940  -25.9530 H    5134  WAT5134     0.2052
  15400  O         -8.1740  -17.6030  -25.9630 O.3  5135  WAT5135    -0.4105
  15401  H1        -8.9570  -17.1280  -25.6840 H    5135  WAT5135     0.2052
  15402  H2        -8.4680  -18.5070  -26.0720 H    5135  WAT5135     0.2052
  15403  O         -3.6220  -16.9000  -27.9190 O.3  5136  WAT5136    -0.4105
  15404  H1        -3.1810  -16.9560  -28.7660 H    5136  WAT5136     0.2052
  15405  H2        -3.8910  -15.9850  -27.8480 H    5136  WAT5136     0.2052
  15406  O         -5.7860  -18.5200  -29.2140 O.3  5137  WAT5137    -0.4105
  15407  H1        -5.1830  -17.9480  -28.7390 H    5137  WAT5137     0.2052
  15408  H2        -6.5270  -17.9560  -29.4360 H    5137  WAT5137     0.2052
  15409  O         -9.3240   -0.4200  -19.1760 O.3  5138  WAT5138    -0.4105
  15410  H1        -8.3980   -0.6560  -19.1330 H    5138  WAT5138     0.2052
  15411  H2        -9.3390    0.4070  -19.6580 H    5138  WAT5138     0.2052
  15412  O        -12.1380  -17.7560  -19.4120 O.3  5139  WAT5139    -0.4105
  15413  H1       -12.4200  -17.2520  -20.1760 H    5139  WAT5139     0.2052
  15414  H2       -11.7560  -18.5530  -19.7780 H    5139  WAT5139     0.2052
  15415  O         -5.5360  -18.3400  -18.8340 O.3  5140  WAT5140    -0.4105
  15416  H1        -5.6500  -18.0210  -17.9390 H    5140  WAT5140     0.2052
  15417  H2        -4.7200  -17.9390  -19.1300 H    5140  WAT5140     0.2052
  15418  O         -2.7570   -1.1930  -19.3520 O.3  5141  WAT5141    -0.4105
  15419  H1        -1.9640   -1.6880  -19.5600 H    5141  WAT5141     0.2052
  15420  H2        -2.4630   -0.5140  -18.7450 H    5141  WAT5141     0.2052
  15421  O         -6.6310  -29.0950   26.6270 O.3  5142  WAT5142    -0.4105
  15422  H1        -6.7110  -30.0100   26.3560 H    5142  WAT5142     0.2052
  15423  H2        -7.0440  -28.5990   25.9210 H    5142  WAT5142     0.2052
  15424  O         -8.4990  -27.3170   28.5080 O.3  5143  WAT5143    -0.4105
  15425  H1        -9.2750  -27.7970   28.7980 H    5143  WAT5143     0.2052
  15426  H2        -7.8480  -27.9970   28.3330 H    5143  WAT5143     0.2052
  15427  O         -4.4780  -22.9110   27.2880 O.3  5144  WAT5144    -0.4105
  15428  H1        -4.9400  -23.6830   27.6160 H    5144  WAT5144     0.2052
  15429  H2        -3.6660  -22.8850   27.7930 H    5144  WAT5144     0.2052
  15430  O        -14.5020  -22.9720   29.5810 O.3  5145  WAT5145    -0.4105
  15431  H1       -14.1990  -23.8620   29.4020 H    5145  WAT5145     0.2052
  15432  H2       -13.7580  -22.4140   29.3530 H    5145  WAT5145     0.2052
  15433  O         -8.2520  -20.6260   26.9080 O.3  5146  WAT5146    -0.4105
  15434  H1        -8.8710  -20.1700   26.3370 H    5146  WAT5146     0.2052
  15435  H2        -7.3970  -20.4710   26.5070 H    5146  WAT5146     0.2052
  15436  O         -9.0580  -24.6420   28.5150 O.3  5147  WAT5147    -0.4105
  15437  H1        -9.1270  -25.5830   28.3540 H    5147  WAT5147     0.2052
  15438  H2        -8.2960  -24.5520   29.0870 H    5147  WAT5147     0.2052
  15439  O         -7.3850  -25.7420   24.3010 O.3  5148  WAT5148    -0.4105
  15440  H1        -8.0040  -25.2770   23.7380 H    5148  WAT5148     0.2052
  15441  H2        -6.8730  -25.0490   24.7180 H    5148  WAT5148     0.2052
  15442  O        -18.0170  -25.0560   21.6750 O.3  5149  WAT5149    -0.4105
  15443  H1       -18.3940  -24.5670   20.9440 H    5149  WAT5149     0.2052
  15444  H2       -17.7600  -24.3840   22.3060 H    5149  WAT5149     0.2052
  15445  O         -4.8570  -20.9380   29.4240 O.3  5150  WAT5150    -0.4105
  15446  H1        -4.8440  -21.3420   28.5570 H    5150  WAT5150     0.2052
  15447  H2        -5.4090  -20.1630   29.3210 H    5150  WAT5150     0.2052
  15448  O         -3.5620  -24.2160   24.5140 O.3  5151  WAT5151    -0.4105
  15449  H1        -3.6730  -25.1590   24.6380 H    5151  WAT5151     0.2052
  15450  H2        -3.5650  -23.8550   25.4000 H    5151  WAT5151     0.2052
  15451  O         -8.0200  -28.5900   23.8700 O.3  5152  WAT5152    -0.4105
  15452  H1        -8.9470  -28.6560   24.0990 H    5152  WAT5152     0.2052
  15453  H2        -7.8680  -27.6520   23.7550 H    5152  WAT5152     0.2052
  15454  O         -3.9900  -27.0280   24.3730 O.3  5153  WAT5153    -0.4105
  15455  H1        -4.6090  -27.3660   23.7260 H    5153  WAT5153     0.2052
  15456  H2        -4.0080  -27.6720   25.0810 H    5153  WAT5153     0.2052
  15457  O        -12.4140  -28.0630   26.6520 O.3  5154  WAT5154    -0.4105
  15458  H1       -12.8190  -28.7750   26.1560 H    5154  WAT5154     0.2052
  15459  H2       -12.3280  -28.4080   27.5410 H    5154  WAT5154     0.2052
  15460  O        -11.9460  -24.3760   28.8160 O.3  5155  WAT5155    -0.4105
  15461  H1       -12.2430  -24.9820   28.1360 H    5155  WAT5155     0.2052
  15462  H2       -10.9960  -24.3390   28.7050 H    5155  WAT5155     0.2052
  15463  O         -5.8140  -27.7890   21.3810 O.3  5156  WAT5156    -0.4105
  15464  H1        -5.3750  -28.6270   21.2340 H    5156  WAT5156     0.2052
  15465  H2        -5.1010  -27.1560   21.4670 H    5156  WAT5156     0.2052
  15466  O         -7.7040  -22.8490   25.3490 O.3  5157  WAT5157    -0.4105
  15467  H1        -7.2650  -22.1070   24.9340 H    5157  WAT5157     0.2052
  15468  H2        -7.7660  -22.6070   26.2730 H    5157  WAT5157     0.2052
  15469  O        -15.7140  -29.1690   24.1520 O.3  5158  WAT5158    -0.4105
  15470  H1       -15.8340  -28.4420   23.5410 H    5158  WAT5158     0.2052
  15471  H2       -16.0240  -29.9380   23.6750 H    5158  WAT5158     0.2052
  15472  O        -16.8310  -24.2970   26.3700 O.3  5159  WAT5159    -0.4105
  15473  H1       -17.2380  -24.1560   25.5150 H    5159  WAT5159     0.2052
  15474  H2       -15.9390  -24.5810   26.1670 H    5159  WAT5159     0.2052
  15475  O         -5.0370  -19.8620   22.7050 O.3  5160  WAT5160    -0.4105
  15476  H1        -5.1970  -20.1520   23.6030 H    5160  WAT5160     0.2052
  15477  H2        -5.2030  -20.6380   22.1700 H    5160  WAT5160     0.2052
  15478  O        -12.5590  -20.0820   24.4820 O.3  5161  WAT5161    -0.4105
  15479  H1       -12.7340  -20.9990   24.2690 H    5161  WAT5161     0.2052
  15480  H2       -13.4130  -19.7240   24.7220 H    5161  WAT5161     0.2052
  15481  O         -5.3350  -22.3540   21.2650 O.3  5162  WAT5162    -0.4105
  15482  H1        -6.0280  -22.3560   20.6050 H    5162  WAT5162     0.2052
  15483  H2        -4.5930  -22.7780   20.8340 H    5162  WAT5162     0.2052
  15484  O         -5.7700  -20.7270   25.3400 O.3  5163  WAT5163    -0.4105
  15485  H1        -5.3140  -21.5080   25.6530 H    5163  WAT5163     0.2052
  15486  H2        -5.4310  -20.0170   25.8840 H    5163  WAT5163     0.2052
  15487  O        -11.5230  -29.4820   20.7820 O.3  5164  WAT5164    -0.4105
  15488  H1       -12.0910  -29.9300   20.1550 H    5164  WAT5164     0.2052
  15489  H2       -10.8140  -29.1220   20.2480 H    5164  WAT5164     0.2052
  15490  O        -13.9780  -25.4860   23.0540 O.3  5165  WAT5165    -0.4105
  15491  H1       -14.7520  -26.0260   22.8940 H    5165  WAT5165     0.2052
  15492  H2       -13.2480  -26.0050   22.7160 H    5165  WAT5165     0.2052
  15493  O         -3.2190  -26.4890   28.8470 O.3  5166  WAT5166    -0.4105
  15494  H1        -2.4990  -25.9940   28.4570 H    5166  WAT5166     0.2052
  15495  H2        -3.4210  -27.1680   28.2020 H    5166  WAT5166     0.2052
  15496  O        -13.9340  -25.8180   26.6920 O.3  5167  WAT5167    -0.4105
  15497  H1       -13.4160  -26.6210   26.6380 H    5167  WAT5167     0.2052
  15498  H2       -14.3860  -25.8800   27.5340 H    5167  WAT5167     0.2052
  15499  O         -9.0470  -24.5510   21.9650 O.3  5168  WAT5168    -0.4105
  15500  H1        -8.7060  -23.8070   21.4690 H    5168  WAT5168     0.2052
  15501  H2        -9.8760  -24.2380   22.3270 H    5168  WAT5168     0.2052
  15502  O         -2.7720  -29.4120   20.7540 O.3  5169  WAT5169    -0.4105
  15503  H1        -2.8550  -28.9810   19.9040 H    5169  WAT5169     0.2052
  15504  H2        -2.0520  -28.9530   21.1870 H    5169  WAT5169     0.2052
  15505  O         -1.7430  -22.5580   23.4820 O.3  5170  WAT5170    -0.4105
  15506  H1        -2.3850  -23.2130   23.7570 H    5170  WAT5170     0.2052
  15507  H2        -2.1300  -22.1530   22.7060 H    5170  WAT5170     0.2052
  15508  O         -6.1640  -25.2300   27.3290 O.3  5171  WAT5171    -0.4105
  15509  H1        -5.8120  -25.8270   26.6700 H    5171  WAT5171     0.2052
  15510  H2        -7.0480  -25.5550   27.5000 H    5171  WAT5171     0.2052
  15511  O        -10.0780  -24.4700   24.7360 O.3  5172  WAT5172    -0.4105
  15512  H1        -9.3910  -23.9230   25.1170 H    5172  WAT5172     0.2052
  15513  H2       -10.8650  -23.9260   24.7710 H    5172  WAT5172     0.2052
  15514  O        -17.9390  -28.8530   20.2280 O.3  5173  WAT5173    -0.4105
  15515  H1       -17.0690  -28.5700   20.5120 H    5173  WAT5173     0.2052
  15516  H2       -18.4300  -28.0390   20.1130 H    5173  WAT5173     0.2052
  15517  O        -10.7750  -27.4650   24.3490 O.3  5174  WAT5174    -0.4105
  15518  H1       -10.3190  -26.6550   24.5750 H    5174  WAT5174     0.2052
  15519  H2       -11.1270  -27.7830   25.1810 H    5174  WAT5174     0.2052
  15520  O         -3.3530  -23.6670   20.0200 O.3  5175  WAT5175    -0.4105
  15521  H1        -3.5800  -24.3840   20.6120 H    5175  WAT5175     0.2052
  15522  H2        -3.7440  -23.9150   19.1820 H    5175  WAT5175     0.2052
  15523  O        -17.5720  -19.6400   20.7940 O.3  5176  WAT5176    -0.4105
  15524  H1       -17.2120  -19.0410   20.1400 H    5176  WAT5176     0.2052
  15525  H2       -17.7120  -19.0940   21.5680 H    5176  WAT5176     0.2052
  15526  O         -3.7720  -25.7490   21.6810 O.3  5177  WAT5177    -0.4105
  15527  H1        -4.0600  -25.2880   22.4690 H    5177  WAT5177     0.2052
  15528  H2        -2.9760  -26.2100   21.9500 H    5177  WAT5177     0.2052
  15529  O        -11.5550  -22.2570   21.6120 O.3  5178  WAT5178    -0.4105
  15530  H1       -11.5640  -21.5240   20.9960 H    5178  WAT5178     0.2052
  15531  H2       -12.4750  -22.5040   21.7040 H    5178  WAT5178     0.2052
  15532  O        -15.9540  -27.0350   22.3560 O.3  5179  WAT5179    -0.4105
  15533  H1       -16.5610  -26.2950   22.3660 H    5179  WAT5179     0.2052
  15534  H2       -15.4790  -26.9450   21.5300 H    5179  WAT5179     0.2052
  15535  O         -8.5690  -22.1940   20.2740 O.3  5180  WAT5180    -0.4105
  15536  H1        -8.4680  -22.3980   19.3440 H    5180  WAT5180     0.2052
  15537  H2        -9.4690  -22.4480   20.4790 H    5180  WAT5180     0.2052
  15538  O         -9.9270  -19.6750   24.9690 O.3  5181  WAT5181    -0.4105
  15539  H1        -9.6730  -19.7130   24.0470 H    5181  WAT5181     0.2052
  15540  H2       -10.8760  -19.8020   24.9620 H    5181  WAT5181     0.2052
  15541  O         -3.9220  -28.7560   26.5450 O.3  5182  WAT5182    -0.4105
  15542  H1        -4.8630  -28.7410   26.7200 H    5182  WAT5182     0.2052
  15543  H2        -3.6070  -29.5430   26.9910 H    5182  WAT5182     0.2052
  15544  O        -13.9440  -27.0740   20.1050 O.3  5183  WAT5183    -0.4105
  15545  H1       -13.1770  -27.1860   20.6680 H    5183  WAT5183     0.2052
  15546  H2       -13.8660  -27.7700   19.4530 H    5183  WAT5183     0.2052
  15547  O         -1.9190  -21.5850   28.2200 O.3  5184  WAT5184    -0.4105
  15548  H1        -1.7950  -20.7620   28.6930 H    5184  WAT5184     0.2052
  15549  H2        -1.0530  -21.7960   27.8730 H    5184  WAT5184     0.2052
  15550  O        -14.4470  -19.4920   27.8920 O.3  5185  WAT5185    -0.4105
  15551  H1       -13.7110  -20.0410   28.1630 H    5185  WAT5185     0.2052
  15552  H2       -14.0630  -18.6270   27.7530 H    5185  WAT5185     0.2052
  15553  O        -17.5630  -23.4250   23.7660 O.3  5186  WAT5186    -0.4105
  15554  H1       -18.4890  -23.1830   23.7570 H    5186  WAT5186     0.2052
  15555  H2       -17.0970  -22.5970   23.6450 H    5186  WAT5186     0.2052
  15556  O        -11.3370  -20.3190   19.7150 O.3  5187  WAT5187    -0.4105
  15557  H1       -10.5440  -20.0300   19.2630 H    5187  WAT5187     0.2052
  15558  H2       -11.8570  -20.7500   19.0360 H    5187  WAT5187     0.2052
  15559  O         -2.2840  -21.0920   21.1380 O.3  5188  WAT5188    -0.4105
  15560  H1        -2.5700  -21.5060   20.3240 H    5188  WAT5188     0.2052
  15561  H2        -2.4820  -20.1630   21.0180 H    5188  WAT5188     0.2052
  15562  O        -10.8200  -25.0990   19.5790 O.3  5189  WAT5189    -0.4105
  15563  H1       -10.9240  -25.7130   20.3050 H    5189  WAT5189     0.2052
  15564  H2       -10.9870  -25.6220   18.7950 H    5189  WAT5189     0.2052
  15565  O         -7.5790  -26.0370   20.1830 O.3  5190  WAT5190    -0.4105
  15566  H1        -8.1280  -25.5900   20.8270 H    5190  WAT5190     0.2052
  15567  H2        -6.9570  -26.5420   20.7070 H    5190  WAT5190     0.2052
  15568  O        -11.9120  -27.0780   22.0790 O.3  5191  WAT5191    -0.4105
  15569  H1       -11.4900  -27.2440   22.9230 H    5191  WAT5191     0.2052
  15570  H2       -11.7870  -27.8880   21.5850 H    5191  WAT5191     0.2052
  15571  O         -9.3990  -28.0540   19.3270 O.3  5192  WAT5192    -0.4105
  15572  H1        -8.8780  -28.7690   18.9610 H    5192  WAT5192     0.2052
  15573  H2        -8.7520  -27.4150   19.6270 H    5192  WAT5192     0.2052
  15574  O         -8.8340  -19.9730   21.6170 O.3  5193  WAT5193    -0.4105
  15575  H1        -7.9390  -19.6340   21.6390 H    5193  WAT5193     0.2052
  15576  H2        -8.8020  -20.6950   20.9900 H    5193  WAT5193     0.2052
  15577  O        -15.1950  -24.6000   19.8460 O.3  5194  WAT5194    -0.4105
  15578  H1       -14.7570  -24.0570   20.5020 H    5194  WAT5194     0.2052
  15579  H2       -14.7100  -25.4250   19.8560 H    5194  WAT5194     0.2052
  15580  O        -17.9800  -21.8110   27.2980 O.3  5195  WAT5195    -0.4105
  15581  H1       -17.6500  -22.6790   27.0660 H    5195  WAT5195     0.2052
  15582  H2       -17.5510  -21.6050   28.1290 H    5195  WAT5195     0.2052
  15583  O        -13.3840  -23.4800   24.9580 O.3  5196  WAT5196    -0.4105
  15584  H1       -13.6840  -23.6040   25.8590 H    5196  WAT5196     0.2052
  15585  H2       -13.4900  -24.3390   24.5500 H    5196  WAT5196     0.2052
  15586  O         -0.6150  -23.7010   19.6610 O.3  5197  WAT5197    -0.4105
  15587  H1        -1.4450  -23.6330   20.1320 H    5197  WAT5197     0.2052
  15588  H2        -0.4370  -22.8100   19.3580 H    5197  WAT5197     0.2052
  15589  O         -1.1590  -26.9560   22.1640 O.3  5198  WAT5198    -0.4105
  15590  H1        -0.3970  -26.3860   22.2700 H    5198  WAT5198     0.2052
  15591  H2        -1.1440  -27.5230   22.9350 H    5198  WAT5198     0.2052
  15592  O        -17.6590  -28.4320   26.3950 O.3  5199  WAT5199    -0.4105
  15593  H1       -18.3140  -28.7010   25.7510 H    5199  WAT5199     0.2052
  15594  H2       -16.8210  -28.5420   25.9450 H    5199  WAT5199     0.2052
  15595  O         -0.1530  -26.1010   27.0090 O.3  5200  WAT5200    -0.4105
  15596  H1         0.2180  -26.8840   26.6020 H    5200  WAT5200     0.2052
  15597  H2         0.4870  -25.4120   26.8300 H    5200  WAT5200     0.2052
  15598  O         -1.1070  -26.6620   19.3220 O.3  5201  WAT5201    -0.4105
  15599  H1        -0.8320  -25.7540   19.1940 H    5201  WAT5201     0.2052
  15600  H2        -1.2960  -26.7260   20.2580 H    5201  WAT5201     0.2052
  15601  O         -1.2100  -28.7250   24.3150 O.3  5202  WAT5202    -0.4105
  15602  H1        -1.5860  -29.4930   23.8830 H    5202  WAT5202     0.2052
  15603  H2        -1.9400  -28.3430   24.8020 H    5202  WAT5202     0.2052
  15604  O         -3.1120  -19.9650   25.9480 O.3  5203  WAT5203    -0.4105
  15605  H1        -2.5160  -20.2870   25.2720 H    5203  WAT5203     0.2052
  15606  H2        -2.8540  -20.4380   26.7400 H    5203  WAT5203     0.2052
  15607  O         -2.5610  -19.3160   29.7780 O.3  5204  WAT5204    -0.4105
  15608  H1        -3.0200  -18.5640   29.4040 H    5204  WAT5204     0.2052
  15609  H2        -3.1890  -20.0350   29.7200 H    5204  WAT5204     0.2052
  15610  O        -12.1310  -21.0070   28.9530 O.3  5205  WAT5205    -0.4105
  15611  H1       -11.6150  -21.6180   28.4280 H    5205  WAT5205     0.2052
  15612  H2       -11.4810  -20.5040   29.4440 H    5205  WAT5205     0.2052
  15613  O        -17.4530  -19.9040   25.3780 O.3  5206  WAT5206    -0.4105
  15614  H1       -17.6200  -20.5370   26.0760 H    5206  WAT5206     0.2052
  15615  H2       -18.3190  -19.6980   25.0270 H    5206  WAT5206     0.2052
  15616  O        -15.8460  -21.2110   22.8230 O.3  5207  WAT5207    -0.4105
  15617  H1       -16.3720  -20.8300   22.1190 H    5207  WAT5207     0.2052
  15618  H2       -15.9220  -20.5860   23.5440 H    5207  WAT5207     0.2052
  15619  O         -1.0900  -19.6520   24.1440 O.3  5208  WAT5208    -0.4105
  15620  H1        -0.9150  -20.3380   23.5000 H    5208  WAT5208     0.2052
  15621  H2        -1.7880  -19.1270   23.7520 H    5208  WAT5208     0.2052
  15622  O        -13.2470  -19.2620   21.6980 O.3  5209  WAT5209    -0.4105
  15623  H1       -12.5150  -19.5470   21.1500 H    5209  WAT5209     0.2052
  15624  H2       -12.9880  -19.5010   22.5880 H    5209  WAT5209     0.2052
  15625  O        -14.0860  -23.1460   21.7020 O.3  5210  WAT5210    -0.4105
  15626  H1       -14.7150  -22.6770   22.2510 H    5210  WAT5210     0.2052
  15627  H2       -13.9710  -23.9910   22.1370 H    5210  WAT5210     0.2052
  15628  O         -6.6310  -29.0950    7.8520 O.3  5211  WAT5211    -0.4105
  15629  H1        -6.7110  -30.0100    7.5820 H    5211  WAT5211     0.2052
  15630  H2        -7.0440  -28.5990    7.1460 H    5211  WAT5211     0.2052
  15631  O         -8.4990  -27.3170    9.7330 O.3  5212  WAT5212    -0.4105
  15632  H1        -9.2750  -27.7970   10.0230 H    5212  WAT5212     0.2052
  15633  H2        -7.8480  -27.9970    9.5590 H    5212  WAT5212     0.2052
  15634  O        -14.4820  -27.0060   10.6110 O.3  5213  WAT5213    -0.4105
  15635  H1       -15.3140  -27.2610   11.0110 H    5213  WAT5213     0.2052
  15636  H2       -13.8740  -26.9340   11.3470 H    5213  WAT5213     0.2052
  15637  O         -4.4780  -22.9110    8.5130 O.3  5214  WAT5214    -0.4105
  15638  H1        -4.9400  -23.6830    8.8420 H    5214  WAT5214     0.2052
  15639  H2        -3.6660  -22.8850    9.0190 H    5214  WAT5214     0.2052
  15640  O        -14.5020  -22.9720   10.8070 O.3  5215  WAT5215    -0.4105
  15641  H1       -14.1990  -23.8620   10.6280 H    5215  WAT5215     0.2052
  15642  H2       -13.7580  -22.4140   10.5790 H    5215  WAT5215     0.2052
  15643  O         -8.2520  -20.6260    8.1340 O.3  5216  WAT5216    -0.4105
  15644  H1        -8.8710  -20.1700    7.5630 H    5216  WAT5216     0.2052
  15645  H2        -7.3970  -20.4710    7.7330 H    5216  WAT5216     0.2052
  15646  O         -9.0580  -24.6420    9.7400 O.3  5217  WAT5217    -0.4105
  15647  H1        -9.1270  -25.5830    9.5790 H    5217  WAT5217     0.2052
  15648  H2        -8.2960  -24.5520   10.3130 H    5217  WAT5217     0.2052
  15649  O         -7.3850  -25.7420    5.5270 O.3  5218  WAT5218    -0.4105
  15650  H1        -8.0040  -25.2770    4.9630 H    5218  WAT5218     0.2052
  15651  H2        -6.8730  -25.0490    5.9440 H    5218  WAT5218     0.2052
  15652  O        -12.5220  -26.2140   12.2050 O.3  5219  WAT5219    -0.4105
  15653  H1       -12.8550  -25.5870   12.8470 H    5219  WAT5219     0.2052
  15654  H2       -12.3460  -25.6880   11.4250 H    5219  WAT5219     0.2052
  15655  O        -13.3100  -24.2460   14.0200 O.3  5220  WAT5220    -0.4105
  15656  H1       -12.6930  -23.5710   13.7390 H    5220  WAT5220     0.2052
  15657  H2       -14.1710  -23.8370   13.9290 H    5220  WAT5220     0.2052
  15658  O        -18.0170  -25.0560    2.9010 O.3  5221  WAT5221    -0.4105
  15659  H1       -18.3940  -24.5670    2.1690 H    5221  WAT5221     0.2052
  15660  H2       -17.7600  -24.3840    3.5310 H    5221  WAT5221     0.2052
  15661  O         -2.3930  -22.7820   11.9360 O.3  5222  WAT5222    -0.4105
  15662  H1        -3.0760  -22.1120   11.9270 H    5222  WAT5222     0.2052
  15663  H2        -1.8530  -22.5840   11.1700 H    5222  WAT5222     0.2052
  15664  O         -4.8570  -20.9380   10.6500 O.3  5223  WAT5223    -0.4105
  15665  H1        -4.8440  -21.3420    9.7820 H    5223  WAT5223     0.2052
  15666  H2        -5.4090  -20.1630   10.5460 H    5223  WAT5223     0.2052
  15667  O         -3.5620  -24.2160    5.7390 O.3  5224  WAT5224    -0.4105
  15668  H1        -3.6730  -25.1590    5.8640 H    5224  WAT5224     0.2052
  15669  H2        -3.5650  -23.8550    6.6250 H    5224  WAT5224     0.2052
  15670  O         -5.4580  -26.0350   11.9780 O.3  5225  WAT5225    -0.4105
  15671  H1        -5.0410  -26.2490   11.1440 H    5225  WAT5225     0.2052
  15672  H2        -4.7340  -25.7770   12.5490 H    5225  WAT5225     0.2052
  15673  O         -8.0200  -28.5900    5.0950 O.3  5226  WAT5226    -0.4105
  15674  H1        -8.9470  -28.6560    5.3240 H    5226  WAT5226     0.2052
  15675  H2        -7.8680  -27.6520    4.9810 H    5226  WAT5226     0.2052
  15676  O         -1.5120  -27.6360   12.0700 O.3  5227  WAT5227    -0.4105
  15677  H1        -2.3400  -27.5670   11.5950 H    5227  WAT5227     0.2052
  15678  H2        -0.9170  -27.0510   11.6020 H    5227  WAT5227     0.2052
  15679  O         -3.9900  -27.0280    5.5990 O.3  5228  WAT5228    -0.4105
  15680  H1        -4.6090  -27.3660    4.9520 H    5228  WAT5228     0.2052
  15681  H2        -4.0080  -27.6720    6.3070 H    5228  WAT5228     0.2052
  15682  O        -12.4140  -28.0630    7.8770 O.3  5229  WAT5229    -0.4105
  15683  H1       -12.8190  -28.7750    7.3820 H    5229  WAT5229     0.2052
  15684  H2       -12.3280  -28.4080    8.7660 H    5229  WAT5229     0.2052
  15685  O        -11.9460  -24.3760   10.0410 O.3  5230  WAT5230    -0.4105
  15686  H1       -12.2430  -24.9820    9.3620 H    5230  WAT5230     0.2052
  15687  H2       -10.9960  -24.3390    9.9300 H    5230  WAT5230     0.2052
  15688  O         -3.8580  -20.8030   13.7040 O.3  5231  WAT5231    -0.4105
  15689  H1        -4.3350  -19.9960   13.5110 H    5231  WAT5231     0.2052
  15690  H2        -4.5420  -21.4550   13.8560 H    5231  WAT5231     0.2052
  15691  O        -12.8540  -24.6380   16.6920 O.3  5232  WAT5232    -0.4105
  15692  H1       -13.7520  -24.4140   16.9390 H    5232  WAT5232     0.2052
  15693  H2       -12.8290  -24.5150   15.7430 H    5232  WAT5232     0.2052
  15694  O         -5.8140  -27.7890    2.6060 O.3  5233  WAT5233    -0.4105
  15695  H1        -5.3750  -28.6270    2.4600 H    5233  WAT5233     0.2052
  15696  H2        -5.1010  -27.1560    2.6930 H    5233  WAT5233     0.2052
  15697  O        -14.0270  -27.7670   15.2680 O.3  5234  WAT5234    -0.4105
  15698  H1       -14.1670  -26.8950   15.6370 H    5234  WAT5234     0.2052
  15699  H2       -14.9090  -28.1100   15.1230 H    5234  WAT5234     0.2052
  15700  O         -7.7040  -22.8490    6.5740 O.3  5235  WAT5235    -0.4105
  15701  H1        -7.2650  -22.1070    6.1600 H    5235  WAT5235     0.2052
  15702  H2        -7.7660  -22.6070    7.4980 H    5235  WAT5235     0.2052
  15703  O        -12.2290  -21.8250   17.4760 O.3  5236  WAT5236    -0.4105
  15704  H1       -12.2580  -21.4200   16.6090 H    5236  WAT5236     0.2052
  15705  H2       -12.3930  -22.7540   17.3130 H    5236  WAT5236     0.2052
  15706  O        -15.7140  -29.1690    5.3780 O.3  5237  WAT5237    -0.4105
  15707  H1       -15.8340  -28.4420    4.7660 H    5237  WAT5237     0.2052
  15708  H2       -16.0240  -29.9380    4.9010 H    5237  WAT5237     0.2052
  15709  O         -0.2780  -21.0420   18.7730 O.3  5238  WAT5238    -0.4105
  15710  H1         0.1980  -20.5640   19.4520 H    5238  WAT5238     0.2052
  15711  H2         0.3430  -21.1100   18.0470 H    5238  WAT5238     0.2052
  15712  O        -18.0750  -25.9970   11.1850 O.3  5239  WAT5239    -0.4105
  15713  H1       -17.9970  -25.8620   10.2400 H    5239  WAT5239     0.2052
  15714  H2       -17.4610  -26.7060   11.3780 H    5239  WAT5239     0.2052
  15715  O        -16.8310  -24.2970    7.5960 O.3  5240  WAT5240    -0.4105
  15716  H1       -17.2380  -24.1560    6.7410 H    5240  WAT5240     0.2052
  15717  H2       -15.9390  -24.5810    7.3930 H    5240  WAT5240     0.2052
  15718  O         -0.8750  -23.8510   15.9330 O.3  5241  WAT5241    -0.4105
  15719  H1        -0.7480  -24.0890   15.0140 H    5241  WAT5241     0.2052
  15720  H2        -0.8320  -24.6820   16.4050 H    5241  WAT5241     0.2052
  15721  O         -7.0130  -20.1480   14.5020 O.3  5242  WAT5242    -0.4105
  15722  H1        -6.4980  -20.2370   15.3040 H    5242  WAT5242     0.2052
  15723  H2        -7.8560  -19.8020   14.7950 H    5242  WAT5242     0.2052
  15724  O         -5.0370  -19.8620    3.9310 O.3  5243  WAT5243    -0.4105
  15725  H1        -5.1970  -20.1520    4.8290 H    5243  WAT5243     0.2052
  15726  H2        -5.2030  -20.6380    3.3950 H    5243  WAT5243     0.2052
  15727  O        -12.5590  -20.0820    5.7080 O.3  5244  WAT5244    -0.4105
  15728  H1       -12.7340  -20.9990    5.4950 H    5244  WAT5244     0.2052
  15729  H2       -13.4130  -19.7240    5.9480 H    5244  WAT5244     0.2052
  15730  O         -5.3350  -22.3540    2.4900 O.3  5245  WAT5245    -0.4105
  15731  H1        -6.0280  -22.3560    1.8310 H    5245  WAT5245     0.2052
  15732  H2        -4.5930  -22.7780    2.0600 H    5245  WAT5245     0.2052
  15733  O         -5.7700  -20.7270    6.5650 O.3  5246  WAT5246    -0.4105
  15734  H1        -5.3140  -21.5080    6.8790 H    5246  WAT5246     0.2052
  15735  H2        -5.4310  -20.0170    7.1090 H    5246  WAT5246     0.2052
  15736  O        -18.0200  -24.9560   13.7240 O.3  5247  WAT5247    -0.4105
  15737  H1       -17.8560  -25.4250   12.9060 H    5247  WAT5247     0.2052
  15738  H2       -17.5540  -25.4630   14.3890 H    5247  WAT5247     0.2052
  15739  O        -11.5230  -29.4820    2.0070 O.3  5248  WAT5248    -0.4105
  15740  H1       -12.0910  -29.9300    1.3810 H    5248  WAT5248     0.2052
  15741  H2       -10.8140  -29.1220    1.4740 H    5248  WAT5248     0.2052
  15742  O        -16.4460  -25.5810   15.8840 O.3  5249  WAT5249    -0.4105
  15743  H1       -16.8300  -26.2210   16.4820 H    5249  WAT5249     0.2052
  15744  H2       -16.1340  -24.8770   16.4530 H    5249  WAT5249     0.2052
  15745  O        -10.2960  -28.7330   11.3650 O.3  5250  WAT5250    -0.4105
  15746  H1        -9.9290  -29.2070   12.1110 H    5250  WAT5250     0.2052
  15747  H2       -10.4850  -27.8590   11.7060 H    5250  WAT5250     0.2052
  15748  O        -12.5060  -29.6920   13.6830 O.3  5251  WAT5251    -0.4105
  15749  H1       -12.8100  -28.8130   13.9080 H    5251  WAT5251     0.2052
  15750  H2       -11.5510  -29.6320   13.7190 H    5251  WAT5251     0.2052
  15751  O        -13.9780  -25.4860    4.2800 O.3  5252  WAT5252    -0.4105
  15752  H1       -14.7520  -26.0260    4.1200 H    5252  WAT5252     0.2052
  15753  H2       -13.2480  -26.0050    3.9420 H    5252  WAT5252     0.2052
  15754  O         -3.2190  -26.4890   10.0730 O.3  5253  WAT5253    -0.4105
  15755  H1        -2.4990  -25.9940    9.6820 H    5253  WAT5253     0.2052
  15756  H2        -3.4210  -27.1680    9.4280 H    5253  WAT5253     0.2052
  15757  O         -7.8370  -26.4180   15.9590 O.3  5254  WAT5254    -0.4105
  15758  H1        -7.9030  -27.3390   15.7050 H    5254  WAT5254     0.2052
  15759  H2        -8.4670  -26.3210   16.6740 H    5254  WAT5254     0.2052
  15760  O        -13.9340  -25.8180    7.9180 O.3  5255  WAT5255    -0.4105
  15761  H1       -13.4160  -26.6210    7.8630 H    5255  WAT5255     0.2052
  15762  H2       -14.3860  -25.8800    8.7590 H    5255  WAT5255     0.2052
  15763  O         -9.0470  -24.5510    3.1910 O.3  5256  WAT5256    -0.4105
  15764  H1        -8.7060  -23.8070    2.6950 H    5256  WAT5256     0.2052
  15765  H2        -9.8760  -24.2380    3.5530 H    5256  WAT5256     0.2052
  15766  O        -16.4500  -28.8520   14.8300 O.3  5257  WAT5257    -0.4105
  15767  H1       -16.8080  -28.1860   15.4180 H    5257  WAT5257     0.2052
  15768  H2       -16.7440  -29.6830   15.2020 H    5257  WAT5257     0.2052
  15769  O        -13.2480  -28.3930   17.7140 O.3  5258  WAT5258    -0.4105
  15770  H1       -13.5480  -28.2480   16.8170 H    5258  WAT5258     0.2052
  15771  H2       -12.4770  -28.9530   17.6220 H    5258  WAT5258     0.2052
  15772  O         -7.9050  -23.5960   15.7100 O.3  5259  WAT5259    -0.4105
  15773  H1        -7.8910  -24.5280   15.4920 H    5259  WAT5259     0.2052
  15774  H2        -8.6130  -23.5100   16.3490 H    5259  WAT5259     0.2052
  15775  O         -2.7720  -29.4120    1.9800 O.3  5260  WAT5260    -0.4105
  15776  H1        -2.8550  -28.9810    1.1290 H    5260  WAT5260     0.2052
  15777  H2        -2.0520  -28.9530    2.4120 H    5260  WAT5260     0.2052
  15778  O         -1.6940  -26.9560   15.0570 O.3  5261  WAT5261    -0.4105
  15779  H1        -2.4200  -26.3630   14.8600 H    5261  WAT5261     0.2052
  15780  H2        -1.1670  -26.9630   14.2580 H    5261  WAT5261     0.2052
  15781  O         -1.7430  -22.5580    4.7080 O.3  5262  WAT5262    -0.4105
  15782  H1        -2.3850  -23.2130    4.9820 H    5262  WAT5262     0.2052
  15783  H2        -2.1300  -22.1530    3.9320 H    5262  WAT5262     0.2052
  15784  O         -6.1640  -25.2300    8.5550 O.3  5263  WAT5263    -0.4105
  15785  H1        -5.8120  -25.8270    7.8950 H    5263  WAT5263     0.2052
  15786  H2        -7.0480  -25.5550    8.7260 H    5263  WAT5263     0.2052
  15787  O        -10.0780  -24.4700    5.9620 O.3  5264  WAT5264    -0.4105
  15788  H1        -9.3910  -23.9230    6.3430 H    5264  WAT5264     0.2052
  15789  H2       -10.8650  -23.9260    5.9970 H    5264  WAT5264     0.2052
  15790  O        -17.9390  -28.8530    1.4540 O.3  5265  WAT5265    -0.4105
  15791  H1       -17.0690  -28.5700    1.7370 H    5265  WAT5265     0.2052
  15792  H2       -18.4300  -28.0390    1.3390 H    5265  WAT5265     0.2052
  15793  O        -10.7750  -27.4650    5.5750 O.3  5266  WAT5266    -0.4105
  15794  H1       -10.3190  -26.6550    5.8010 H    5266  WAT5266     0.2052
  15795  H2       -11.1270  -27.7830    6.4060 H    5266  WAT5266     0.2052
  15796  O         -8.4720  -21.9550   12.8040 O.3  5267  WAT5267    -0.4105
  15797  H1        -7.8280  -21.7490   13.4810 H    5267  WAT5267     0.2052
  15798  H2        -8.1090  -22.7160   12.3510 H    5267  WAT5267     0.2052
  15799  O         -7.1990  -23.9510   11.5220 O.3  5268  WAT5268    -0.4105
  15800  H1        -6.5570  -24.6520   11.6350 H    5268  WAT5268     0.2052
  15801  H2        -6.6740  -23.1720   11.3410 H    5268  WAT5268     0.2052
  15802  O         -3.3530  -23.6670    1.2460 O.3  5269  WAT5269    -0.4105
  15803  H1        -3.5800  -24.3840    1.8380 H    5269  WAT5269     0.2052
  15804  H2        -3.7440  -23.9150    0.4080 H    5269  WAT5269     0.2052
  15805  O         -5.4250  -23.1520   14.7250 O.3  5270  WAT5270    -0.4105
  15806  H1        -5.0890  -22.5650   15.4030 H    5270  WAT5270     0.2052
  15807  H2        -6.3450  -23.2830   14.9550 H    5270  WAT5270     0.2052
  15808  O        -17.5720  -19.6400    2.0200 O.3  5271  WAT5271    -0.4105
  15809  H1       -17.2120  -19.0410    1.3660 H    5271  WAT5271     0.2052
  15810  H2       -17.7120  -19.0940    2.7930 H    5271  WAT5271     0.2052
  15811  O         -3.7720  -25.7490    2.9070 O.3  5272  WAT5272    -0.4105
  15812  H1        -4.0600  -25.2880    3.6950 H    5272  WAT5272     0.2052
  15813  H2        -2.9760  -26.2100    3.1750 H    5272  WAT5272     0.2052
  15814  O        -17.5880  -21.3740   16.4940 O.3  5273  WAT5273    -0.4105
  15815  H1       -17.4780  -22.3150   16.3540 H    5273  WAT5273     0.2052
  15816  H2       -18.2390  -21.1090   15.8460 H    5273  WAT5273     0.2052
  15817  O         -9.5960  -23.1030   17.8940 O.3  5274  WAT5274    -0.4105
  15818  H1        -9.9170  -23.8220   18.4390 H    5274  WAT5274     0.2052
  15819  H2       -10.2700  -22.4270   17.9680 H    5274  WAT5274     0.2052
  15820  O        -11.5550  -22.2570    2.8370 O.3  5275  WAT5275    -0.4105
  15821  H1       -11.5640  -21.5240    2.2220 H    5275  WAT5275     0.2052
  15822  H2       -12.4750  -22.5040    2.9300 H    5275  WAT5275     0.2052
  15823  O        -15.9540  -27.0350    3.5820 O.3  5276  WAT5276    -0.4105
  15824  H1       -16.5610  -26.2950    3.5920 H    5276  WAT5276     0.2052
  15825  H2       -15.4790  -26.9450    2.7560 H    5276  WAT5276     0.2052
  15826  O         -8.5690  -22.1940    1.5000 O.3  5277  WAT5277    -0.4105
  15827  H1        -8.4680  -22.3980    0.5700 H    5277  WAT5277     0.2052
  15828  H2        -9.4690  -22.4480    1.7050 H    5277  WAT5277     0.2052
  15829  O         -9.9270  -19.6750    6.1950 O.3  5278  WAT5278    -0.4105
  15830  H1        -9.6730  -19.7130    5.2730 H    5278  WAT5278     0.2052
  15831  H2       -10.8760  -19.8020    6.1870 H    5278  WAT5278     0.2052
  15832  O         -3.9220  -28.7560    7.7700 O.3  5279  WAT5279    -0.4105
  15833  H1        -4.8630  -28.7410    7.9450 H    5279  WAT5279     0.2052
  15834  H2        -3.6070  -29.5430    8.2170 H    5279  WAT5279     0.2052
  15835  O        -13.9440  -27.0740    1.3310 O.3  5280  WAT5280    -0.4105
  15836  H1       -13.1770  -27.1860    1.8930 H    5280  WAT5280     0.2052
  15837  H2       -13.8660  -27.7700    0.6790 H    5280  WAT5280     0.2052
  15838  O         -1.9190  -21.5850    9.4460 O.3  5281  WAT5281    -0.4105
  15839  H1        -1.7950  -20.7620    9.9180 H    5281  WAT5281     0.2052
  15840  H2        -1.0530  -21.7960    9.0980 H    5281  WAT5281     0.2052
  15841  O        -14.4470  -19.4920    9.1180 O.3  5282  WAT5282    -0.4105
  15842  H1       -13.7110  -20.0410    9.3880 H    5282  WAT5282     0.2052
  15843  H2       -14.0630  -18.6270    8.9780 H    5282  WAT5282     0.2052
  15844  O        -17.5630  -23.4250    4.9920 O.3  5283  WAT5283    -0.4105
  15845  H1       -18.4890  -23.1830    4.9820 H    5283  WAT5283     0.2052
  15846  H2       -17.0970  -22.5970    4.8700 H    5283  WAT5283     0.2052
  15847  O        -15.4420  -20.3070   18.3060 O.3  5284  WAT5284    -0.4105
  15848  H1       -14.6400  -19.9860   18.7200 H    5284  WAT5284     0.2052
  15849  H2       -15.9560  -20.6680   19.0280 H    5284  WAT5284     0.2052
  15850  O        -11.3370  -20.3190    0.9400 O.3  5285  WAT5285    -0.4105
  15851  H1       -10.5440  -20.0300    0.4880 H    5285  WAT5285     0.2052
  15852  H2       -11.8570  -20.7500    0.2610 H    5285  WAT5285     0.2052
  15853  O         -6.6050  -24.2000   18.2540 O.3  5286  WAT5286    -0.4105
  15854  H1        -7.2110  -24.1760   17.5130 H    5286  WAT5286     0.2052
  15855  H2        -6.9100  -24.9310   18.7900 H    5286  WAT5286     0.2052
  15856  O         -5.1750  -20.4710   16.8650 O.3  5287  WAT5287    -0.4105
  15857  H1        -4.2230  -20.5560   16.8150 H    5287  WAT5287     0.2052
  15858  H2        -5.3220  -19.8070   17.5380 H    5287  WAT5287     0.2052
  15859  O         -2.2840  -21.0920    2.3640 O.3  5288  WAT5288    -0.4105
  15860  H1        -2.5700  -21.5060    1.5490 H    5288  WAT5288     0.2052
  15861  H2        -2.4820  -20.1630    2.2440 H    5288  WAT5288     0.2052
  15862  O        -17.7220  -27.8200   17.2500 O.3  5289  WAT5289    -0.4105
  15863  H1       -17.2180  -28.3990   17.8210 H    5289  WAT5289     0.2052
  15864  H2       -18.4610  -27.5360   17.7870 H    5289  WAT5289     0.2052
  15865  O        -10.8200  -25.0990    0.8040 O.3  5290  WAT5290    -0.4105
  15866  H1       -10.9240  -25.7130    1.5310 H    5290  WAT5290     0.2052
  15867  H2       -10.9870  -25.6220    0.0210 H    5290  WAT5290     0.2052
  15868  O        -10.6680  -26.4130   16.7830 O.3  5291  WAT5291    -0.4105
  15869  H1       -11.4340  -25.8450   16.6990 H    5291  WAT5291     0.2052
  15870  H2       -10.4860  -26.7050   15.8900 H    5291  WAT5291     0.2052
  15871  O         -7.5790  -26.0370    1.4090 O.3  5292  WAT5292    -0.4105
  15872  H1        -8.1280  -25.5900    2.0530 H    5292  WAT5292     0.2052
  15873  H2        -6.9570  -26.5420    1.9320 H    5292  WAT5292     0.2052
  15874  O         -3.5260  -24.6830   17.3410 O.3  5293  WAT5293    -0.4105
  15875  H1        -2.7850  -24.3450   16.8380 H    5293  WAT5293     0.2052
  15876  H2        -4.2880  -24.5130   16.7880 H    5293  WAT5293     0.2052
  15877  O        -15.6900  -29.6770   18.1450 O.3  5294  WAT5294    -0.4105
  15878  H1       -15.6490  -29.9760   19.0530 H    5294  WAT5294     0.2052
  15879  H2       -14.8350  -29.2760   17.9860 H    5294  WAT5294     0.2052
  15880  O        -11.9120  -27.0780    3.3050 O.3  5295  WAT5295    -0.4105
  15881  H1       -11.4900  -27.2440    4.1480 H    5295  WAT5295     0.2052
  15882  H2       -11.7870  -27.8880    2.8110 H    5295  WAT5295     0.2052
  15883  O         -9.3990  -28.0540    0.5530 O.3  5296  WAT5296    -0.4105
  15884  H1        -8.8780  -28.7690    0.1870 H    5296  WAT5296     0.2052
  15885  H2        -8.7520  -27.4150    0.8530 H    5296  WAT5296     0.2052
  15886  O         -4.8510  -26.6310   15.8760 O.3  5297  WAT5297    -0.4105
  15887  H1        -4.4370  -26.4770   16.7250 H    5297  WAT5297     0.2052
  15888  H2        -5.7860  -26.5060   16.0390 H    5297  WAT5297     0.2052
  15889  O         -4.3790  -29.2910   17.8800 O.3  5298  WAT5298    -0.4105
  15890  H1        -3.7970  -30.0460   17.7920 H    5298  WAT5298     0.2052
  15891  H2        -4.2030  -28.7610   17.1030 H    5298  WAT5298     0.2052
  15892  O        -10.0900  -26.6790   13.8460 O.3  5299  WAT5299    -0.4105
  15893  H1        -9.6710  -25.8360   13.6740 H    5299  WAT5299     0.2052
  15894  H2       -11.0090  -26.5420   13.6170 H    5299  WAT5299     0.2052
  15895  O         -7.7530  -28.9470   15.2300 O.3  5300  WAT5300    -0.4105
  15896  H1        -7.6340  -29.5430   15.9690 H    5300  WAT5300     0.2052
  15897  H2        -6.8940  -28.9100   14.8100 H    5300  WAT5300     0.2052
  15898  O         -5.4140  -28.3940   13.8060 O.3  5301  WAT5301    -0.4105
  15899  H1        -5.9410  -27.8690   13.2030 H    5301  WAT5301     0.2052
  15900  H2        -5.0710  -27.7610   14.4370 H    5301  WAT5301     0.2052
  15901  O        -12.2390  -20.3740   14.9620 O.3  5302  WAT5302    -0.4105
  15902  H1       -12.7770  -19.6490   14.6430 H    5302  WAT5302     0.2052
  15903  H2       -11.9860  -20.8510   14.1710 H    5302  WAT5302     0.2052
  15904  O         -9.3830  -19.1390   15.2200 O.3  5303  WAT5303    -0.4105
  15905  H1        -9.4570  -18.2350   15.5280 H    5303  WAT5303     0.2052
  15906  H2       -10.2850  -19.4570   15.1930 H    5303  WAT5303     0.2052
  15907  O         -8.8340  -19.9730    2.8430 O.3  5304  WAT5304    -0.4105
  15908  H1        -7.9390  -19.6340    2.8650 H    5304  WAT5304     0.2052
  15909  H2        -8.8020  -20.6950    2.2150 H    5304  WAT5304     0.2052
  15910  O        -15.1950  -24.6000    1.0720 O.3  5305  WAT5305    -0.4105
  15911  H1       -14.7570  -24.0570    1.7270 H    5305  WAT5305     0.2052
  15912  H2       -14.7100  -25.4250    1.0810 H    5305  WAT5305     0.2052
  15913  O        -17.9800  -21.8110    8.5240 O.3  5306  WAT5306    -0.4105
  15914  H1       -17.6500  -22.6790    8.2920 H    5306  WAT5306     0.2052
  15915  H2       -17.5510  -21.6050    9.3540 H    5306  WAT5306     0.2052
  15916  O        -13.3840  -23.4800    6.1840 O.3  5307  WAT5307    -0.4105
  15917  H1       -13.6840  -23.6040    7.0840 H    5307  WAT5307     0.2052
  15918  H2       -13.4900  -24.3390    5.7760 H    5307  WAT5307     0.2052
  15919  O        -17.4910  -20.9440   11.2620 O.3  5308  WAT5308    -0.4105
  15920  H1       -17.9280  -20.7640   12.0940 H    5308  WAT5308     0.2052
  15921  H2       -16.9230  -20.1870   11.1200 H    5308  WAT5308     0.2052
  15922  O         -1.8550  -21.4420   15.5500 O.3  5309  WAT5309    -0.4105
  15923  H1        -2.4550  -21.3830   14.8060 H    5309  WAT5309     0.2052
  15924  H2        -1.7250  -22.3820   15.6790 H    5309  WAT5309     0.2052
  15925  O         -0.6150  -23.7010    0.8870 O.3  5310  WAT5310    -0.4105
  15926  H1        -1.4450  -23.6330    1.3570 H    5310  WAT5310     0.2052
  15927  H2        -0.4370  -22.8100    0.5830 H    5310  WAT5310     0.2052
  15928  O         -1.1590  -26.9560    3.3900 O.3  5311  WAT5311    -0.4105
  15929  H1        -0.3970  -26.3860    3.4960 H    5311  WAT5311     0.2052
  15930  H2        -1.1440  -27.5230    4.1610 H    5311  WAT5311     0.2052
  15931  O        -17.6590  -28.4320    7.6210 O.3  5312  WAT5312    -0.4105
  15932  H1       -18.3140  -28.7010    6.9770 H    5312  WAT5312     0.2052
  15933  H2       -16.8210  -28.5420    7.1710 H    5312  WAT5312     0.2052
  15934  O         -0.1530  -26.1010    8.2340 O.3  5313  WAT5313    -0.4105
  15935  H1         0.2180  -26.8840    7.8280 H    5313  WAT5313     0.2052
  15936  H2         0.4870  -25.4120    8.0560 H    5313  WAT5313     0.2052
  15937  O         -3.1700  -24.7170   13.6470 O.3  5314  WAT5314    -0.4105
  15938  H1        -3.9840  -24.2870   13.9100 H    5314  WAT5314     0.2052
  15939  H2        -2.7620  -24.1050   13.0340 H    5314  WAT5314     0.2052
  15940  O         -1.1070  -26.6620    0.5470 O.3  5315  WAT5315    -0.4105
  15941  H1        -0.8320  -25.7540    0.4190 H    5315  WAT5315     0.2052
  15942  H2        -1.2960  -26.7260    1.4830 H    5315  WAT5315     0.2052
  15943  O         -1.2100  -28.7250    5.5400 O.3  5316  WAT5316    -0.4105
  15944  H1        -1.5860  -29.4930    5.1080 H    5316  WAT5316     0.2052
  15945  H2        -1.9400  -28.3430    6.0280 H    5316  WAT5316     0.2052
  15946  O        -16.6210  -28.0470   12.1610 O.3  5317  WAT5317    -0.4105
  15947  H1       -16.2540  -28.1340   13.0410 H    5317  WAT5317     0.2052
  15948  H2       -17.1900  -28.8100   12.0620 H    5317  WAT5317     0.2052
  15949  O         -1.8210  -29.5780   15.1740 O.3  5318  WAT5318    -0.4105
  15950  H1        -2.0520  -29.8070   14.2740 H    5318  WAT5318     0.2052
  15951  H2        -1.5600  -28.6580   15.1290 H    5318  WAT5318     0.2052
  15952  O         -3.1120  -19.9650    7.1740 O.3  5319  WAT5319    -0.4105
  15953  H1        -2.5160  -20.2870    6.4980 H    5319  WAT5319     0.2052
  15954  H2        -2.8540  -20.4380    7.9650 H    5319  WAT5319     0.2052
  15955  O        -15.2060  -23.5330   17.3230 O.3  5320  WAT5320    -0.4105
  15956  H1       -15.2490  -23.9040   18.2050 H    5320  WAT5320     0.2052
  15957  H2       -15.0750  -22.5960   17.4630 H    5320  WAT5320     0.2052
  15958  O        -11.5050  -21.9780   12.9240 O.3  5321  WAT5321    -0.4105
  15959  H1       -11.7460  -21.7100   12.0370 H    5321  WAT5321     0.2052
  15960  H2       -10.5650  -21.8070   12.9790 H    5321  WAT5321     0.2052
  15961  O         -0.2450  -19.9580   13.7250 O.3  5322  WAT5322    -0.4105
  15962  H1        -0.7390  -19.5610   13.0080 H    5322  WAT5322     0.2052
  15963  H2        -0.8530  -20.5830   14.1190 H    5322  WAT5322     0.2052
  15964  O        -15.3670  -20.5870   14.4430 O.3  5323  WAT5323    -0.4105
  15965  H1       -15.9610  -20.7190   15.1820 H    5323  WAT5323     0.2052
  15966  H2       -15.3750  -21.4230   13.9770 H    5323  WAT5323     0.2052
  15967  O         -2.5610  -19.3160   11.0040 O.3  5324  WAT5324    -0.4105
  15968  H1        -3.0200  -18.5640   10.6300 H    5324  WAT5324     0.2052
  15969  H2        -3.1890  -20.0350   10.9450 H    5324  WAT5324     0.2052
  15970  O        -15.7360  -23.2210   13.3940 O.3  5325  WAT5325    -0.4105
  15971  H1       -16.4620  -23.8410   13.3260 H    5325  WAT5325     0.2052
  15972  H2       -15.6750  -22.8270   12.5240 H    5325  WAT5325     0.2052
  15973  O        -12.1310  -21.0070   10.1790 O.3  5326  WAT5326    -0.4105
  15974  H1       -11.6150  -21.6180    9.6540 H    5326  WAT5326     0.2052
  15975  H2       -11.4810  -20.5040   10.6700 H    5326  WAT5326     0.2052
  15976  O         -9.3920  -20.1160   11.0060 O.3  5327  WAT5327    -0.4105
  15977  H1        -9.1040  -20.3710   10.1290 H    5327  WAT5327     0.2052
  15978  H2        -8.8790  -20.6680   11.5960 H    5327  WAT5327     0.2052
  15979  O        -17.4530  -19.9040    6.6030 O.3  5328  WAT5328    -0.4105
  15980  H1       -17.6200  -20.5370    7.3020 H    5328  WAT5328     0.2052
  15981  H2       -18.3190  -19.6980    6.2530 H    5328  WAT5328     0.2052
  15982  O        -15.8460  -21.2110    4.0480 O.3  5329  WAT5329    -0.4105
  15983  H1       -16.3720  -20.8300    3.3450 H    5329  WAT5329     0.2052
  15984  H2       -15.9220  -20.5860    4.7690 H    5329  WAT5329     0.2052
  15985  O         -9.3240  -19.1940   18.3720 O.3  5330  WAT5330    -0.4105
  15986  H1        -8.3980  -19.4300   18.4160 H    5330  WAT5330     0.2052
  15987  H2        -9.3390  -18.3670   17.8910 H    5330  WAT5330     0.2052
  15988  O         -1.0900  -19.6520    5.3700 O.3  5331  WAT5331    -0.4105
  15989  H1        -0.9150  -20.3380    4.7260 H    5331  WAT5331     0.2052
  15990  H2        -1.7880  -19.1270    4.9770 H    5331  WAT5331     0.2052
  15991  O        -13.2470  -19.2620    2.9230 O.3  5332  WAT5332    -0.4105
  15992  H1       -12.5150  -19.5470    2.3760 H    5332  WAT5332     0.2052
  15993  H2       -12.9880  -19.5010    3.8130 H    5332  WAT5332     0.2052
  15994  O        -14.0860  -23.1460    2.9280 O.3  5333  WAT5333    -0.4105
  15995  H1       -14.7150  -22.6770    3.4770 H    5333  WAT5333     0.2052
  15996  H2       -13.9710  -23.9910    3.3630 H    5333  WAT5333     0.2052
  15997  O         -2.7570  -19.9670   18.1960 O.3  5334  WAT5334    -0.4105
  15998  H1        -1.9640  -20.4630   17.9890 H    5334  WAT5334     0.2052
  15999  H2        -2.4630  -19.2880   18.8040 H    5334  WAT5334     0.2052
  16000  O         -6.6310  -29.0950  -10.9220 O.3  5335  WAT5335    -0.4105
  16001  H1        -6.7110  -30.0100  -11.1930 H    5335  WAT5335     0.2052
  16002  H2        -7.0440  -28.5990  -11.6280 H    5335  WAT5335     0.2052
  16003  O         -8.4990  -27.3170   -9.0410 O.3  5336  WAT5336    -0.4105
  16004  H1        -9.2750  -27.7970   -8.7510 H    5336  WAT5336     0.2052
  16005  H2        -7.8480  -27.9970   -9.2150 H    5336  WAT5336     0.2052
  16006  O        -14.4820  -27.0060   -8.1630 O.3  5337  WAT5337    -0.4105
  16007  H1       -15.3140  -27.2610   -7.7640 H    5337  WAT5337     0.2052
  16008  H2       -13.8740  -26.9340   -7.4280 H    5337  WAT5337     0.2052
  16009  O         -4.4780  -22.9110  -10.2610 O.3  5338  WAT5338    -0.4105
  16010  H1        -4.9400  -23.6830   -9.9320 H    5338  WAT5338     0.2052
  16011  H2        -3.6660  -22.8850   -9.7560 H    5338  WAT5338     0.2052
  16012  O        -14.5020  -22.9720   -7.9680 O.3  5339  WAT5339    -0.4105
  16013  H1       -14.1990  -23.8620   -8.1470 H    5339  WAT5339     0.2052
  16014  H2       -13.7580  -22.4140   -8.1950 H    5339  WAT5339     0.2052
  16015  O         -8.2520  -20.6260  -10.6410 O.3  5340  WAT5340    -0.4105
  16016  H1        -8.8710  -20.1700  -11.2110 H    5340  WAT5340     0.2052
  16017  H2        -7.3970  -20.4710  -11.0420 H    5340  WAT5340     0.2052
  16018  O         -9.0580  -24.6420   -9.0340 O.3  5341  WAT5341    -0.4105
  16019  H1        -9.1270  -25.5830   -9.1950 H    5341  WAT5341     0.2052
  16020  H2        -8.2960  -24.5520   -8.4620 H    5341  WAT5341     0.2052
  16021  O         -7.3850  -25.7420  -13.2470 O.3  5342  WAT5342    -0.4105
  16022  H1        -8.0040  -25.2770  -13.8110 H    5342  WAT5342     0.2052
  16023  H2        -6.8730  -25.0490  -12.8310 H    5342  WAT5342     0.2052
  16024  O        -12.5220  -26.2140   -6.5690 O.3  5343  WAT5343    -0.4105
  16025  H1       -12.8550  -25.5870   -5.9270 H    5343  WAT5343     0.2052
  16026  H2       -12.3460  -25.6880   -7.3490 H    5343  WAT5343     0.2052
  16027  O        -13.3100  -24.2460   -4.7540 O.3  5344  WAT5344    -0.4105
  16028  H1       -12.6930  -23.5710   -5.0360 H    5344  WAT5344     0.2052
  16029  H2       -14.1710  -23.8370   -4.8450 H    5344  WAT5344     0.2052
  16030  O        -18.0170  -25.0560  -15.8740 O.3  5345  WAT5345    -0.4105
  16031  H1       -18.3940  -24.5670  -16.6050 H    5345  WAT5345     0.2052
  16032  H2       -17.7600  -24.3840  -15.2430 H    5345  WAT5345     0.2052
  16033  O         -2.3930  -22.7820   -6.8390 O.3  5346  WAT5346    -0.4105
  16034  H1        -3.0760  -22.1120   -6.8470 H    5346  WAT5346     0.2052
  16035  H2        -1.8530  -22.5840   -7.6040 H    5346  WAT5346     0.2052
  16036  O         -4.8570  -20.9380   -8.1240 O.3  5347  WAT5347    -0.4105
  16037  H1        -4.8440  -21.3420   -8.9920 H    5347  WAT5347     0.2052
  16038  H2        -5.4090  -20.1630   -8.2280 H    5347  WAT5347     0.2052
  16039  O         -3.5620  -24.2160  -13.0350 O.3  5348  WAT5348    -0.4105
  16040  H1        -3.6730  -25.1590  -12.9100 H    5348  WAT5348     0.2052
  16041  H2        -3.5650  -23.8550  -12.1490 H    5348  WAT5348     0.2052
  16042  O         -5.4580  -26.0350   -6.7960 O.3  5349  WAT5349    -0.4105
  16043  H1        -5.0410  -26.2490   -7.6310 H    5349  WAT5349     0.2052
  16044  H2        -4.7340  -25.7770   -6.2250 H    5349  WAT5349     0.2052
  16045  O         -8.0200  -28.5900  -13.6790 O.3  5350  WAT5350    -0.4105
  16046  H1        -8.9470  -28.6560  -13.4500 H    5350  WAT5350     0.2052
  16047  H2        -7.8680  -27.6520  -13.7930 H    5350  WAT5350     0.2052
  16048  O         -1.5120  -27.6360   -6.7040 O.3  5351  WAT5351    -0.4105
  16049  H1        -2.3400  -27.5670   -7.1790 H    5351  WAT5351     0.2052
  16050  H2        -0.9170  -27.0510   -7.1730 H    5351  WAT5351     0.2052
  16051  O         -3.9900  -27.0280  -13.1750 O.3  5352  WAT5352    -0.4105
  16052  H1        -4.6090  -27.3660  -13.8230 H    5352  WAT5352     0.2052
  16053  H2        -4.0080  -27.6720  -12.4670 H    5352  WAT5352     0.2052
  16054  O        -12.4140  -28.0630  -10.8970 O.3  5353  WAT5353    -0.4105
  16055  H1       -12.8190  -28.7750  -11.3920 H    5353  WAT5353     0.2052
  16056  H2       -12.3280  -28.4080  -10.0080 H    5353  WAT5353     0.2052
  16057  O        -11.9460  -24.3760   -8.7330 O.3  5354  WAT5354    -0.4105
  16058  H1       -12.2430  -24.9820   -9.4120 H    5354  WAT5354     0.2052
  16059  H2       -10.9960  -24.3390   -8.8440 H    5354  WAT5354     0.2052
  16060  O         -3.8580  -20.8030   -5.0710 O.3  5355  WAT5355    -0.4105
  16061  H1        -4.3350  -19.9960   -5.2630 H    5355  WAT5355     0.2052
  16062  H2        -4.5420  -21.4550   -4.9180 H    5355  WAT5355     0.2052
  16063  O        -12.8540  -24.6380   -2.0820 O.3  5356  WAT5356    -0.4105
  16064  H1       -13.7520  -24.4140   -1.8350 H    5356  WAT5356     0.2052
  16065  H2       -12.8290  -24.5150   -3.0310 H    5356  WAT5356     0.2052
  16066  O         -5.8140  -27.7890  -16.1680 O.3  5357  WAT5357    -0.4105
  16067  H1        -5.3750  -28.6270  -16.3140 H    5357  WAT5357     0.2052
  16068  H2        -5.1010  -27.1560  -16.0820 H    5357  WAT5357     0.2052
  16069  O        -14.0270  -27.7670   -3.5070 O.3  5358  WAT5358    -0.4105
  16070  H1       -14.1670  -26.8950   -3.1380 H    5358  WAT5358     0.2052
  16071  H2       -14.9090  -28.1100   -3.6520 H    5358  WAT5358     0.2052
  16072  O         -7.7040  -22.8490  -12.2000 O.3  5359  WAT5359    -0.4105
  16073  H1        -7.2650  -22.1070  -12.6140 H    5359  WAT5359     0.2052
  16074  H2        -7.7660  -22.6070  -11.2760 H    5359  WAT5359     0.2052
  16075  O        -12.2290  -21.8250   -1.2980 O.3  5360  WAT5360    -0.4105
  16076  H1       -12.2580  -21.4200   -2.1650 H    5360  WAT5360     0.2052
  16077  H2       -12.3930  -22.7540   -1.4610 H    5360  WAT5360     0.2052
  16078  O        -15.7140  -29.1690  -13.3960 O.3  5361  WAT5361    -0.4105
  16079  H1       -15.8340  -28.4420  -14.0080 H    5361  WAT5361     0.2052
  16080  H2       -16.0240  -29.9380  -13.8740 H    5361  WAT5361     0.2052
  16081  O         -0.2780  -21.0420   -0.0020 O.3  5362  WAT5362    -0.4105
  16082  H1         0.1980  -20.5640    0.6770 H    5362  WAT5362     0.2052
  16083  H2         0.3430  -21.1100   -0.7270 H    5362  WAT5362     0.2052
  16084  O        -18.0750  -25.9970   -7.5890 O.3  5363  WAT5363    -0.4105
  16085  H1       -17.9970  -25.8620   -8.5340 H    5363  WAT5363     0.2052
  16086  H2       -17.4610  -26.7060   -7.3970 H    5363  WAT5363     0.2052
  16087  O        -16.8310  -24.2970  -11.1790 O.3  5364  WAT5364    -0.4105
  16088  H1       -17.2380  -24.1560  -12.0330 H    5364  WAT5364     0.2052
  16089  H2       -15.9390  -24.5810  -11.3820 H    5364  WAT5364     0.2052
  16090  O         -0.8750  -23.8510   -2.8420 O.3  5365  WAT5365    -0.4105
  16091  H1        -0.7480  -24.0890   -3.7600 H    5365  WAT5365     0.2052
  16092  H2        -0.8320  -24.6820   -2.3690 H    5365  WAT5365     0.2052
  16093  O         -7.0130  -20.1480   -4.2720 O.3  5366  WAT5366    -0.4105
  16094  H1        -6.4980  -20.2370   -3.4700 H    5366  WAT5366     0.2052
  16095  H2        -7.8560  -19.8020   -3.9790 H    5366  WAT5366     0.2052
  16096  O         -5.0370  -19.8620  -14.8440 O.3  5367  WAT5367    -0.4105
  16097  H1        -5.1970  -20.1520  -13.9460 H    5367  WAT5367     0.2052
  16098  H2        -5.2030  -20.6380  -15.3790 H    5367  WAT5367     0.2052
  16099  O        -12.5590  -20.0820  -13.0670 O.3  5368  WAT5368    -0.4105
  16100  H1       -12.7340  -20.9990  -13.2800 H    5368  WAT5368     0.2052
  16101  H2       -13.4130  -19.7240  -12.8270 H    5368  WAT5368     0.2052
  16102  O         -5.3350  -22.3540  -16.2840 O.3  5369  WAT5369    -0.4105
  16103  H1        -6.0280  -22.3560  -16.9440 H    5369  WAT5369     0.2052
  16104  H2        -4.5930  -22.7780  -16.7140 H    5369  WAT5369     0.2052
  16105  O         -5.7700  -20.7270  -12.2090 O.3  5370  WAT5370    -0.4105
  16106  H1        -5.3140  -21.5080  -11.8950 H    5370  WAT5370     0.2052
  16107  H2        -5.4310  -20.0170  -11.6650 H    5370  WAT5370     0.2052
  16108  O        -18.0200  -24.9560   -5.0500 O.3  5371  WAT5371    -0.4105
  16109  H1       -17.8560  -25.4250   -5.8680 H    5371  WAT5371     0.2052
  16110  H2       -17.5540  -25.4630   -4.3850 H    5371  WAT5371     0.2052
  16111  O        -11.5230  -29.4820  -16.7670 O.3  5372  WAT5372    -0.4105
  16112  H1       -12.0910  -29.9300  -17.3930 H    5372  WAT5372     0.2052
  16113  H2       -10.8140  -29.1220  -17.3010 H    5372  WAT5372     0.2052
  16114  O        -16.4460  -25.5810   -2.8900 O.3  5373  WAT5373    -0.4105
  16115  H1       -16.8300  -26.2210   -2.2920 H    5373  WAT5373     0.2052
  16116  H2       -16.1340  -24.8770   -2.3210 H    5373  WAT5373     0.2052
  16117  O        -10.2960  -28.7330   -7.4100 O.3  5374  WAT5374    -0.4105
  16118  H1        -9.9290  -29.2070   -6.6630 H    5374  WAT5374     0.2052
  16119  H2       -10.4850  -27.8590   -7.0690 H    5374  WAT5374     0.2052
  16120  O        -12.5060  -29.6920   -5.0910 O.3  5375  WAT5375    -0.4105
  16121  H1       -12.8100  -28.8130   -4.8660 H    5375  WAT5375     0.2052
  16122  H2       -11.5510  -29.6320   -5.0550 H    5375  WAT5375     0.2052
  16123  O        -13.9780  -25.4860  -14.4940 O.3  5376  WAT5376    -0.4105
  16124  H1       -14.7520  -26.0260  -14.6550 H    5376  WAT5376     0.2052
  16125  H2       -13.2480  -26.0050  -14.8330 H    5376  WAT5376     0.2052
  16126  O         -3.2190  -26.4890   -8.7020 O.3  5377  WAT5377    -0.4105
  16127  H1        -2.4990  -25.9940   -9.0920 H    5377  WAT5377     0.2052
  16128  H2        -3.4210  -27.1680   -9.3460 H    5377  WAT5377     0.2052
  16129  O         -7.8370  -26.4180   -2.8150 O.3  5378  WAT5378    -0.4105
  16130  H1        -7.9030  -27.3390   -3.0690 H    5378  WAT5378     0.2052
  16131  H2        -8.4670  -26.3210   -2.1000 H    5378  WAT5378     0.2052
  16132  O        -13.9340  -25.8180  -10.8570 O.3  5379  WAT5379    -0.4105
  16133  H1       -13.4160  -26.6210  -10.9110 H    5379  WAT5379     0.2052
  16134  H2       -14.3860  -25.8800  -10.0150 H    5379  WAT5379     0.2052
  16135  O         -9.0470  -24.5510  -15.5840 O.3  5380  WAT5380    -0.4105
  16136  H1        -8.7060  -23.8070  -16.0790 H    5380  WAT5380     0.2052
  16137  H2        -9.8760  -24.2380  -15.2210 H    5380  WAT5380     0.2052
  16138  O        -16.4500  -28.8520   -3.9440 O.3  5381  WAT5381    -0.4105
  16139  H1       -16.8080  -28.1860   -3.3570 H    5381  WAT5381     0.2052
  16140  H2       -16.7440  -29.6830   -3.5730 H    5381  WAT5381     0.2052
  16141  O        -13.2480  -28.3930   -1.0600 O.3  5382  WAT5382    -0.4105
  16142  H1       -13.5480  -28.2480   -1.9570 H    5382  WAT5382     0.2052
  16143  H2       -12.4770  -28.9530   -1.1530 H    5382  WAT5382     0.2052
  16144  O         -7.9050  -23.5960   -3.0650 O.3  5383  WAT5383    -0.4105
  16145  H1        -7.8910  -24.5280   -3.2830 H    5383  WAT5383     0.2052
  16146  H2        -8.6130  -23.5100   -2.4260 H    5383  WAT5383     0.2052
  16147  O         -2.7720  -29.4120  -16.7950 O.3  5384  WAT5384    -0.4105
  16148  H1        -2.8550  -28.9810  -17.6450 H    5384  WAT5384     0.2052
  16149  H2        -2.0520  -28.9530  -16.3620 H    5384  WAT5384     0.2052
  16150  O         -1.6940  -26.9560   -3.7180 O.3  5385  WAT5385    -0.4105
  16151  H1        -2.4200  -26.3630   -3.9150 H    5385  WAT5385     0.2052
  16152  H2        -1.1670  -26.9630   -4.5160 H    5385  WAT5385     0.2052
  16153  O         -1.7430  -22.5580  -14.0660 O.3  5386  WAT5386    -0.4105
  16154  H1        -2.3850  -23.2130  -13.7920 H    5386  WAT5386     0.2052
  16155  H2        -2.1300  -22.1530  -14.8420 H    5386  WAT5386     0.2052
  16156  O         -6.1640  -25.2300  -10.2190 O.3  5387  WAT5387    -0.4105
  16157  H1        -5.8120  -25.8270  -10.8790 H    5387  WAT5387     0.2052
  16158  H2        -7.0480  -25.5550  -10.0480 H    5387  WAT5387     0.2052
  16159  O        -10.0780  -24.4700  -12.8120 O.3  5388  WAT5388    -0.4105
  16160  H1        -9.3910  -23.9230  -12.4310 H    5388  WAT5388     0.2052
  16161  H2       -10.8650  -23.9260  -12.7770 H    5388  WAT5388     0.2052
  16162  O        -17.9390  -28.8530  -17.3210 O.3  5389  WAT5389    -0.4105
  16163  H1       -17.0690  -28.5700  -17.0370 H    5389  WAT5389     0.2052
  16164  H2       -18.4300  -28.0390  -17.4360 H    5389  WAT5389     0.2052
  16165  O        -10.7750  -27.4650  -13.2000 O.3  5390  WAT5390    -0.4105
  16166  H1       -10.3190  -26.6550  -12.9740 H    5390  WAT5390     0.2052
  16167  H2       -11.1270  -27.7830  -12.3680 H    5390  WAT5390     0.2052
  16168  O         -8.4720  -21.9550   -5.9700 O.3  5391  WAT5391    -0.4105
  16169  H1        -7.8280  -21.7490   -5.2930 H    5391  WAT5391     0.2052
  16170  H2        -8.1090  -22.7160   -6.4230 H    5391  WAT5391     0.2052
  16171  O         -7.1990  -23.9510   -7.2530 O.3  5392  WAT5392    -0.4105
  16172  H1        -6.5570  -24.6520   -7.1400 H    5392  WAT5392     0.2052
  16173  H2        -6.6740  -23.1720   -7.4330 H    5392  WAT5392     0.2052
  16174  O         -3.3530  -23.6670  -17.5290 O.3  5393  WAT5393    -0.4105
  16175  H1        -3.5800  -24.3840  -16.9360 H    5393  WAT5393     0.2052
  16176  H2        -3.7440  -23.9150  -18.3670 H    5393  WAT5393     0.2052
  16177  O         -5.4250  -23.1520   -4.0490 O.3  5394  WAT5394    -0.4105
  16178  H1        -5.0890  -22.5650   -3.3710 H    5394  WAT5394     0.2052
  16179  H2        -6.3450  -23.2830   -3.8190 H    5394  WAT5394     0.2052
  16180  O        -17.5720  -19.6400  -16.7540 O.3  5395  WAT5395    -0.4105
  16181  H1       -17.2120  -19.0410  -17.4090 H    5395  WAT5395     0.2052
  16182  H2       -17.7120  -19.0940  -15.9810 H    5395  WAT5395     0.2052
  16183  O         -3.7720  -25.7490  -15.8670 O.3  5396  WAT5396    -0.4105
  16184  H1        -4.0600  -25.2880  -15.0800 H    5396  WAT5396     0.2052
  16185  H2        -2.9760  -26.2100  -15.5990 H    5396  WAT5396     0.2052
  16186  O        -17.5880  -21.3740   -2.2800 O.3  5397  WAT5397    -0.4105
  16187  H1       -17.4780  -22.3150   -2.4210 H    5397  WAT5397     0.2052
  16188  H2       -18.2390  -21.1090   -2.9290 H    5397  WAT5397     0.2052
  16189  O         -9.5960  -23.1030   -0.8800 O.3  5398  WAT5398    -0.4105
  16190  H1        -9.9170  -23.8220   -0.3360 H    5398  WAT5398     0.2052
  16191  H2       -10.2700  -22.4270   -0.8070 H    5398  WAT5398     0.2052
  16192  O        -11.5550  -22.2570  -15.9370 O.3  5399  WAT5399    -0.4105
  16193  H1       -11.5640  -21.5240  -16.5530 H    5399  WAT5399     0.2052
  16194  H2       -12.4750  -22.5040  -15.8440 H    5399  WAT5399     0.2052
  16195  O        -15.9540  -27.0350  -15.1920 O.3  5400  WAT5400    -0.4105
  16196  H1       -16.5610  -26.2950  -15.1830 H    5400  WAT5400     0.2052
  16197  H2       -15.4790  -26.9450  -16.0190 H    5400  WAT5400     0.2052
  16198  O         -8.5690  -22.1940  -17.2740 O.3  5401  WAT5401    -0.4105
  16199  H1        -8.4680  -22.3980  -18.2040 H    5401  WAT5401     0.2052
  16200  H2        -9.4690  -22.4480  -17.0700 H    5401  WAT5401     0.2052
  16201  O         -9.9270  -19.6750  -12.5800 O.3  5402  WAT5402    -0.4105
  16202  H1        -9.6730  -19.7130  -13.5020 H    5402  WAT5402     0.2052
  16203  H2       -10.8760  -19.8020  -12.5870 H    5402  WAT5402     0.2052
  16204  O         -3.9220  -28.7560  -11.0040 O.3  5403  WAT5403    -0.4105
  16205  H1        -4.8630  -28.7410  -10.8290 H    5403  WAT5403     0.2052
  16206  H2        -3.6070  -29.5430  -10.5580 H    5403  WAT5403     0.2052
  16207  O        -13.9440  -27.0740  -17.4430 O.3  5404  WAT5404    -0.4105
  16208  H1       -13.1770  -27.1860  -16.8810 H    5404  WAT5404     0.2052
  16209  H2       -13.8660  -27.7700  -18.0960 H    5404  WAT5404     0.2052
  16210  O         -1.9190  -21.5850   -9.3280 O.3  5405  WAT5405    -0.4105
  16211  H1        -1.7950  -20.7620   -8.8560 H    5405  WAT5405     0.2052
  16212  H2        -1.0530  -21.7960   -9.6760 H    5405  WAT5405     0.2052
  16213  O        -14.4470  -19.4920   -9.6570 O.3  5406  WAT5406    -0.4105
  16214  H1       -13.7110  -20.0410   -9.3860 H    5406  WAT5406     0.2052
  16215  H2       -14.0630  -18.6270   -9.7960 H    5406  WAT5406     0.2052
  16216  O        -17.5630  -23.4250  -13.7830 O.3  5407  WAT5407    -0.4105
  16217  H1       -18.4890  -23.1830  -13.7920 H    5407  WAT5407     0.2052
  16218  H2       -17.0970  -22.5970  -13.9040 H    5407  WAT5407     0.2052
  16219  O        -15.4420  -20.3070   -0.4680 O.3  5408  WAT5408    -0.4105
  16220  H1       -14.6400  -19.9860   -0.0550 H    5408  WAT5408     0.2052
  16221  H2       -15.9560  -20.6680    0.2540 H    5408  WAT5408     0.2052
  16222  O        -11.3370  -20.3190  -17.8340 O.3  5409  WAT5409    -0.4105
  16223  H1       -10.5440  -20.0300  -18.2860 H    5409  WAT5409     0.2052
  16224  H2       -11.8570  -20.7500  -18.5130 H    5409  WAT5409     0.2052
  16225  O         -6.6050  -24.2000   -0.5210 O.3  5410  WAT5410    -0.4105
  16226  H1        -7.2110  -24.1760   -1.2610 H    5410  WAT5410     0.2052
  16227  H2        -6.9100  -24.9310    0.0160 H    5410  WAT5410     0.2052
  16228  O         -5.1750  -20.4710   -1.9100 O.3  5411  WAT5411    -0.4105
  16229  H1        -4.2230  -20.5560   -1.9600 H    5411  WAT5411     0.2052
  16230  H2        -5.3220  -19.8070   -1.2360 H    5411  WAT5411     0.2052
  16231  O         -2.2840  -21.0920  -16.4100 O.3  5412  WAT5412    -0.4105
  16232  H1        -2.5700  -21.5060  -17.2250 H    5412  WAT5412     0.2052
  16233  H2        -2.4820  -20.1630  -16.5300 H    5412  WAT5412     0.2052
  16234  O        -17.7220  -27.8200   -1.5250 O.3  5413  WAT5413    -0.4105
  16235  H1       -17.2180  -28.3990   -0.9530 H    5413  WAT5413     0.2052
  16236  H2       -18.4610  -27.5360   -0.9870 H    5413  WAT5413     0.2052
  16237  O        -10.8200  -25.0990  -17.9700 O.3  5414  WAT5414    -0.4105
  16238  H1       -10.9240  -25.7130  -17.2440 H    5414  WAT5414     0.2052
  16239  H2       -10.9870  -25.6220  -18.7540 H    5414  WAT5414     0.2052
  16240  O        -10.6680  -26.4130   -1.9910 O.3  5415  WAT5415    -0.4105
  16241  H1       -11.4340  -25.8450   -2.0760 H    5415  WAT5415     0.2052
  16242  H2       -10.4860  -26.7050   -2.8840 H    5415  WAT5415     0.2052
  16243  O         -7.5790  -26.0370  -17.3660 O.3  5416  WAT5416    -0.4105
  16244  H1        -8.1280  -25.5900  -16.7210 H    5416  WAT5416     0.2052
  16245  H2        -6.9570  -26.5420  -16.8420 H    5416  WAT5416     0.2052
  16246  O         -3.5260  -24.6830   -1.4340 O.3  5417  WAT5417    -0.4105
  16247  H1        -2.7850  -24.3450   -1.9370 H    5417  WAT5417     0.2052
  16248  H2        -4.2880  -24.5130   -1.9870 H    5417  WAT5417     0.2052
  16249  O        -15.6900  -29.6770   -0.6300 O.3  5418  WAT5418    -0.4105
  16250  H1       -15.6490  -29.9760    0.2790 H    5418  WAT5418     0.2052
  16251  H2       -14.8350  -29.2760   -0.7890 H    5418  WAT5418     0.2052
  16252  O        -11.9120  -27.0780  -15.4690 O.3  5419  WAT5419    -0.4105
  16253  H1       -11.4900  -27.2440  -14.6260 H    5419  WAT5419     0.2052
  16254  H2       -11.7870  -27.8880  -15.9640 H    5419  WAT5419     0.2052
  16255  O         -9.3990  -28.0540  -18.2210 O.3  5420  WAT5420    -0.4105
  16256  H1        -8.8780  -28.7690  -18.5870 H    5420  WAT5420     0.2052
  16257  H2        -8.7520  -27.4150  -17.9210 H    5420  WAT5420     0.2052
  16258  O         -4.8510  -26.6310   -2.8980 O.3  5421  WAT5421    -0.4105
  16259  H1        -4.4370  -26.4770   -2.0490 H    5421  WAT5421     0.2052
  16260  H2        -5.7860  -26.5060   -2.7350 H    5421  WAT5421     0.2052
  16261  O         -4.3790  -29.2910   -0.8940 O.3  5422  WAT5422    -0.4105
  16262  H1        -3.7970  -30.0460   -0.9820 H    5422  WAT5422     0.2052
  16263  H2        -4.2030  -28.7610   -1.6710 H    5422  WAT5422     0.2052
  16264  O        -10.0900  -26.6790   -4.9280 O.3  5423  WAT5423    -0.4105
  16265  H1        -9.6710  -25.8360   -5.1010 H    5423  WAT5423     0.2052
  16266  H2       -11.0090  -26.5420   -5.1580 H    5423  WAT5423     0.2052
  16267  O         -7.7530  -28.9470   -3.5450 O.3  5424  WAT5424    -0.4105
  16268  H1        -7.6340  -29.5430   -2.8050 H    5424  WAT5424     0.2052
  16269  H2        -6.8940  -28.9100   -3.9640 H    5424  WAT5424     0.2052
  16270  O         -5.4140  -28.3940   -4.9680 O.3  5425  WAT5425    -0.4105
  16271  H1        -5.9410  -27.8690   -5.5720 H    5425  WAT5425     0.2052
  16272  H2        -5.0710  -27.7610   -4.3370 H    5425  WAT5425     0.2052
  16273  O        -12.2390  -20.3740   -3.8130 O.3  5426  WAT5426    -0.4105
  16274  H1       -12.7770  -19.6490   -4.1320 H    5426  WAT5426     0.2052
  16275  H2       -11.9860  -20.8510   -4.6030 H    5426  WAT5426     0.2052
  16276  O         -9.3830  -19.1390   -3.5540 O.3  5427  WAT5427    -0.4105
  16277  H1        -9.4570  -18.2350   -3.2470 H    5427  WAT5427     0.2052
  16278  H2       -10.2850  -19.4570   -3.5820 H    5427  WAT5427     0.2052
  16279  O         -8.8340  -19.9730  -15.9310 O.3  5428  WAT5428    -0.4105
  16280  H1        -7.9390  -19.6340  -15.9090 H    5428  WAT5428     0.2052
  16281  H2        -8.8020  -20.6950  -16.5590 H    5428  WAT5428     0.2052
  16282  O        -15.1950  -24.6000  -17.7030 O.3  5429  WAT5429    -0.4105
  16283  H1       -14.7570  -24.0570  -17.0470 H    5429  WAT5429     0.2052
  16284  H2       -14.7100  -25.4250  -17.6930 H    5429  WAT5429     0.2052
  16285  O        -17.9800  -21.8110  -10.2510 O.3  5430  WAT5430    -0.4105
  16286  H1       -17.6500  -22.6790  -10.4830 H    5430  WAT5430     0.2052
  16287  H2       -17.5510  -21.6050   -9.4200 H    5430  WAT5430     0.2052
  16288  O        -13.3840  -23.4800  -12.5900 O.3  5431  WAT5431    -0.4105
  16289  H1       -13.6840  -23.6040  -11.6900 H    5431  WAT5431     0.2052
  16290  H2       -13.4900  -24.3390  -12.9990 H    5431  WAT5431     0.2052
  16291  O        -17.4910  -20.9440   -7.5120 O.3  5432  WAT5432    -0.4105
  16292  H1       -17.9280  -20.7640   -6.6800 H    5432  WAT5432     0.2052
  16293  H2       -16.9230  -20.1870   -7.6540 H    5432  WAT5432     0.2052
  16294  O         -1.8550  -21.4420   -3.2250 O.3  5433  WAT5433    -0.4105
  16295  H1        -2.4550  -21.3830   -3.9680 H    5433  WAT5433     0.2052
  16296  H2        -1.7250  -22.3820   -3.0950 H    5433  WAT5433     0.2052
  16297  O         -0.6150  -23.7010  -17.8880 O.3  5434  WAT5434    -0.4105
  16298  H1        -1.4450  -23.6330  -17.4170 H    5434  WAT5434     0.2052
  16299  H2        -0.4370  -22.8100  -18.1910 H    5434  WAT5434     0.2052
  16300  O         -1.1590  -26.9560  -15.3840 O.3  5435  WAT5435    -0.4105
  16301  H1        -0.3970  -26.3860  -15.2780 H    5435  WAT5435     0.2052
  16302  H2        -1.1440  -27.5230  -14.6130 H    5435  WAT5435     0.2052
  16303  O        -17.6590  -28.4320  -11.1540 O.3  5436  WAT5436    -0.4105
  16304  H1       -18.3140  -28.7010  -11.7980 H    5436  WAT5436     0.2052
  16305  H2       -16.8210  -28.5420  -11.6030 H    5436  WAT5436     0.2052
  16306  O         -0.1530  -26.1010  -10.5400 O.3  5437  WAT5437    -0.4105
  16307  H1         0.2180  -26.8840  -10.9470 H    5437  WAT5437     0.2052
  16308  H2         0.4870  -25.4120  -10.7180 H    5437  WAT5437     0.2052
  16309  O         -3.1700  -24.7170   -5.1270 O.3  5438  WAT5438    -0.4105
  16310  H1        -3.9840  -24.2870   -4.8650 H    5438  WAT5438     0.2052
  16311  H2        -2.7620  -24.1050   -5.7400 H    5438  WAT5438     0.2052
  16312  O         -1.1070  -26.6620  -18.2270 O.3  5439  WAT5439    -0.4105
  16313  H1        -0.8320  -25.7540  -18.3550 H    5439  WAT5439     0.2052
  16314  H2        -1.2960  -26.7260  -17.2910 H    5439  WAT5439     0.2052
  16315  O         -1.2100  -28.7250  -13.2340 O.3  5440  WAT5440    -0.4105
  16316  H1        -1.5860  -29.4930  -13.6660 H    5440  WAT5440     0.2052
  16317  H2        -1.9400  -28.3430  -12.7470 H    5440  WAT5440     0.2052
  16318  O        -16.6210  -28.0470   -6.6130 O.3  5441  WAT5441    -0.4105
  16319  H1       -16.2540  -28.1340   -5.7340 H    5441  WAT5441     0.2052
  16320  H2       -17.1900  -28.8100   -6.7130 H    5441  WAT5441     0.2052
  16321  O         -1.8210  -29.5780   -3.6000 O.3  5442  WAT5442    -0.4105
  16322  H1        -2.0520  -29.8070   -4.5000 H    5442  WAT5442     0.2052
  16323  H2        -1.5600  -28.6580   -3.6460 H    5442  WAT5442     0.2052
  16324  O         -3.1120  -19.9650  -11.6000 O.3  5443  WAT5443    -0.4105
  16325  H1        -2.5160  -20.2870  -12.2770 H    5443  WAT5443     0.2052
  16326  H2        -2.8540  -20.4380  -10.8090 H    5443  WAT5443     0.2052
  16327  O        -15.2060  -23.5330   -1.4510 O.3  5444  WAT5444    -0.4105
  16328  H1       -15.2490  -23.9040   -0.5700 H    5444  WAT5444     0.2052
  16329  H2       -15.0750  -22.5960   -1.3110 H    5444  WAT5444     0.2052
  16330  O        -11.5050  -21.9780   -5.8500 O.3  5445  WAT5445    -0.4105
  16331  H1       -11.7460  -21.7100   -6.7370 H    5445  WAT5445     0.2052
  16332  H2       -10.5650  -21.8070   -5.7950 H    5445  WAT5445     0.2052
  16333  O         -0.2450  -19.9580   -5.0490 O.3  5446  WAT5446    -0.4105
  16334  H1        -0.7390  -19.5610   -5.7660 H    5446  WAT5446     0.2052
  16335  H2        -0.8530  -20.5830   -4.6550 H    5446  WAT5446     0.2052
  16336  O        -15.3670  -20.5870   -4.3310 O.3  5447  WAT5447    -0.4105
  16337  H1       -15.9610  -20.7190   -3.5920 H    5447  WAT5447     0.2052
  16338  H2       -15.3750  -21.4230   -4.7970 H    5447  WAT5447     0.2052
  16339  O         -2.5610  -19.3160   -7.7700 O.3  5448  WAT5448    -0.4105
  16340  H1        -3.0200  -18.5640   -8.1450 H    5448  WAT5448     0.2052
  16341  H2        -3.1890  -20.0350   -7.8290 H    5448  WAT5448     0.2052
  16342  O        -15.7360  -23.2210   -5.3810 O.3  5449  WAT5449    -0.4105
  16343  H1       -16.4620  -23.8410   -5.4480 H    5449  WAT5449     0.2052
  16344  H2       -15.6750  -22.8270   -6.2510 H    5449  WAT5449     0.2052
  16345  O        -12.1310  -21.0070   -8.5960 O.3  5450  WAT5450    -0.4105
  16346  H1       -11.6150  -21.6180   -9.1210 H    5450  WAT5450     0.2052
  16347  H2       -11.4810  -20.5040   -8.1050 H    5450  WAT5450     0.2052
  16348  O         -9.3920  -20.1160   -7.7690 O.3  5451  WAT5451    -0.4105
  16349  H1        -9.1040  -20.3710   -8.6450 H    5451  WAT5451     0.2052
  16350  H2        -8.8790  -20.6680   -7.1780 H    5451  WAT5451     0.2052
  16351  O        -17.4530  -19.9040  -12.1710 O.3  5452  WAT5452    -0.4105
  16352  H1       -17.6200  -20.5370  -11.4730 H    5452  WAT5452     0.2052
  16353  H2       -18.3190  -19.6980  -12.5220 H    5452  WAT5452     0.2052
  16354  O        -15.8460  -21.2110  -14.7260 O.3  5453  WAT5453    -0.4105
  16355  H1       -16.3720  -20.8300  -15.4300 H    5453  WAT5453     0.2052
  16356  H2       -15.9220  -20.5860  -14.0050 H    5453  WAT5453     0.2052
  16357  O         -9.3240  -19.1940   -0.4020 O.3  5454  WAT5454    -0.4105
  16358  H1        -8.3980  -19.4300   -0.3580 H    5454  WAT5454     0.2052
  16359  H2        -9.3390  -18.3670   -0.8830 H    5454  WAT5454     0.2052
  16360  O         -1.0900  -19.6520  -13.4050 O.3  5455  WAT5455    -0.4105
  16361  H1        -0.9150  -20.3380  -14.0480 H    5455  WAT5455     0.2052
  16362  H2        -1.7880  -19.1270  -13.7970 H    5455  WAT5455     0.2052
  16363  O        -13.2470  -19.2620  -15.8510 O.3  5456  WAT5456    -0.4105
  16364  H1       -12.5150  -19.5470  -16.3990 H    5456  WAT5456     0.2052
  16365  H2       -12.9880  -19.5010  -14.9610 H    5456  WAT5456     0.2052
  16366  O        -14.0860  -23.1460  -15.8460 O.3  5457  WAT5457    -0.4105
  16367  H1       -14.7150  -22.6770  -15.2980 H    5457  WAT5457     0.2052
  16368  H2       -13.9710  -23.9910  -15.4120 H    5457  WAT5457     0.2052
  16369  O         -2.7570  -19.9670   -0.5780 O.3  5458  WAT5458    -0.4105
  16370  H1        -1.9640  -20.4630   -0.7850 H    5458  WAT5458     0.2052
  16371  H2        -2.4630  -19.2880    0.0300 H    5458  WAT5458     0.2052
  16372  O         -8.4990  -27.3170  -27.8150 O.3  5459  WAT5459    -0.4105
  16373  H1        -9.2750  -27.7970  -27.5250 H    5459  WAT5459     0.2052
  16374  H2        -7.8480  -27.9970  -27.9900 H    5459  WAT5459     0.2052
  16375  O        -14.4820  -27.0060  -26.9380 O.3  5460  WAT5460    -0.4105
  16376  H1       -15.3140  -27.2610  -26.5380 H    5460  WAT5460     0.2052
  16377  H2       -13.8740  -26.9340  -26.2020 H    5460  WAT5460     0.2052
  16378  O         -4.4780  -22.9110  -29.0350 O.3  5461  WAT5461    -0.4105
  16379  H1        -4.9400  -23.6830  -28.7070 H    5461  WAT5461     0.2052
  16380  H2        -3.6660  -22.8850  -28.5300 H    5461  WAT5461     0.2052
  16381  O        -14.5020  -22.9720  -26.7420 O.3  5462  WAT5462    -0.4105
  16382  H1       -14.1990  -23.8620  -26.9210 H    5462  WAT5462     0.2052
  16383  H2       -13.7580  -22.4140  -26.9700 H    5462  WAT5462     0.2052
  16384  O         -9.0580  -24.6420  -27.8080 O.3  5463  WAT5463    -0.4105
  16385  H1        -9.1270  -25.5830  -27.9690 H    5463  WAT5463     0.2052
  16386  H2        -8.2960  -24.5520  -27.2360 H    5463  WAT5463     0.2052
  16387  O        -12.5220  -26.2140  -25.3430 O.3  5464  WAT5464    -0.4105
  16388  H1       -12.8550  -25.5870  -24.7010 H    5464  WAT5464     0.2052
  16389  H2       -12.3460  -25.6880  -26.1230 H    5464  WAT5464     0.2052
  16390  O        -13.3100  -24.2460  -23.5290 O.3  5465  WAT5465    -0.4105
  16391  H1       -12.6930  -23.5710  -23.8100 H    5465  WAT5465     0.2052
  16392  H2       -14.1710  -23.8370  -23.6200 H    5465  WAT5465     0.2052
  16393  O         -2.3930  -22.7820  -25.6130 O.3  5466  WAT5466    -0.4105
  16394  H1        -3.0760  -22.1120  -25.6210 H    5466  WAT5466     0.2052
  16395  H2        -1.8530  -22.5840  -26.3790 H    5466  WAT5466     0.2052
  16396  O         -4.8570  -20.9380  -26.8990 O.3  5467  WAT5467    -0.4105
  16397  H1        -4.8440  -21.3420  -27.7660 H    5467  WAT5467     0.2052
  16398  H2        -5.4090  -20.1630  -27.0020 H    5467  WAT5467     0.2052
  16399  O         -5.4580  -26.0350  -25.5700 O.3  5468  WAT5468    -0.4105
  16400  H1        -5.0410  -26.2490  -26.4050 H    5468  WAT5468     0.2052
  16401  H2        -4.7340  -25.7770  -24.9990 H    5468  WAT5468     0.2052
  16402  O         -1.5120  -27.6360  -25.4790 O.3  5469  WAT5469    -0.4105
  16403  H1        -2.3400  -27.5670  -25.9540 H    5469  WAT5469     0.2052
  16404  H2        -0.9170  -27.0510  -25.9470 H    5469  WAT5469     0.2052
  16405  O        -11.9460  -24.3760  -27.5070 O.3  5470  WAT5470    -0.4105
  16406  H1       -12.2430  -24.9820  -28.1870 H    5470  WAT5470     0.2052
  16407  H2       -10.9960  -24.3390  -27.6180 H    5470  WAT5470     0.2052
  16408  O         -3.8580  -20.8030  -23.8450 O.3  5471  WAT5471    -0.4105
  16409  H1        -4.3350  -19.9960  -24.0380 H    5471  WAT5471     0.2052
  16410  H2        -4.5420  -21.4550  -23.6920 H    5471  WAT5471     0.2052
  16411  O        -12.8540  -24.6380  -20.8570 O.3  5472  WAT5472    -0.4105
  16412  H1       -13.7520  -24.4140  -20.6090 H    5472  WAT5472     0.2052
  16413  H2       -12.8290  -24.5150  -21.8050 H    5472  WAT5472     0.2052
  16414  O        -14.0270  -27.7670  -22.2810 O.3  5473  WAT5473    -0.4105
  16415  H1       -14.1670  -26.8950  -21.9120 H    5473  WAT5473     0.2052
  16416  H2       -14.9090  -28.1100  -22.4260 H    5473  WAT5473     0.2052
  16417  O        -12.2290  -21.8250  -20.0720 O.3  5474  WAT5474    -0.4105
  16418  H1       -12.2580  -21.4200  -20.9400 H    5474  WAT5474     0.2052
  16419  H2       -12.3930  -22.7540  -20.2350 H    5474  WAT5474     0.2052
  16420  O         -0.2780  -21.0420  -18.7760 O.3  5475  WAT5475    -0.4105
  16421  H1         0.1980  -20.5640  -18.0970 H    5475  WAT5475     0.2052
  16422  H2         0.3430  -21.1100  -19.5010 H    5475  WAT5475     0.2052
  16423  O        -18.0750  -25.9970  -26.3640 O.3  5476  WAT5476    -0.4105
  16424  H1       -17.9970  -25.8620  -27.3080 H    5476  WAT5476     0.2052
  16425  H2       -17.4610  -26.7060  -26.1710 H    5476  WAT5476     0.2052
  16426  O         -0.8750  -23.8510  -21.6160 O.3  5477  WAT5477    -0.4105
  16427  H1        -0.7480  -24.0890  -22.5340 H    5477  WAT5477     0.2052
  16428  H2        -0.8320  -24.6820  -21.1440 H    5477  WAT5477     0.2052
  16429  O         -7.0130  -20.1480  -23.0460 O.3  5478  WAT5478    -0.4105
  16430  H1        -6.4980  -20.2370  -22.2440 H    5478  WAT5478     0.2052
  16431  H2        -7.8560  -19.8020  -22.7540 H    5478  WAT5478     0.2052
  16432  O        -18.0200  -24.9560  -23.8240 O.3  5479  WAT5479    -0.4105
  16433  H1       -17.8560  -25.4250  -24.6420 H    5479  WAT5479     0.2052
  16434  H2       -17.5540  -25.4630  -23.1590 H    5479  WAT5479     0.2052
  16435  O        -16.4460  -25.5810  -21.6650 O.3  5480  WAT5480    -0.4105
  16436  H1       -16.8300  -26.2210  -21.0660 H    5480  WAT5480     0.2052
  16437  H2       -16.1340  -24.8770  -21.0950 H    5480  WAT5480     0.2052
  16438  O        -10.2960  -28.7330  -26.1840 O.3  5481  WAT5481    -0.4105
  16439  H1        -9.9290  -29.2070  -25.4380 H    5481  WAT5481     0.2052
  16440  H2       -10.4850  -27.8590  -25.8430 H    5481  WAT5481     0.2052
  16441  O        -12.5060  -29.6920  -23.8650 O.3  5482  WAT5482    -0.4105
  16442  H1       -12.8100  -28.8130  -23.6400 H    5482  WAT5482     0.2052
  16443  H2       -11.5510  -29.6320  -23.8300 H    5482  WAT5482     0.2052
  16444  O         -3.2190  -26.4890  -27.4760 O.3  5483  WAT5483    -0.4105
  16445  H1        -2.4990  -25.9940  -27.8670 H    5483  WAT5483     0.2052
  16446  H2        -3.4210  -27.1680  -28.1210 H    5483  WAT5483     0.2052
  16447  O         -7.8370  -26.4180  -21.5890 O.3  5484  WAT5484    -0.4105
  16448  H1        -7.9030  -27.3390  -21.8430 H    5484  WAT5484     0.2052
  16449  H2        -8.4670  -26.3210  -20.8750 H    5484  WAT5484     0.2052
  16450  O        -13.9340  -25.8180  -29.6310 O.3  5485  WAT5485    -0.4105
  16451  H1       -13.4160  -26.6210  -29.6850 H    5485  WAT5485     0.2052
  16452  H2       -14.3860  -25.8800  -28.7890 H    5485  WAT5485     0.2052
  16453  O        -16.4500  -28.8520  -22.7180 O.3  5486  WAT5486    -0.4105
  16454  H1       -16.8080  -28.1860  -22.1310 H    5486  WAT5486     0.2052
  16455  H2       -16.7440  -29.6830  -22.3470 H    5486  WAT5486     0.2052
  16456  O        -13.2480  -28.3930  -19.8340 O.3  5487  WAT5487    -0.4105
  16457  H1       -13.5480  -28.2480  -20.7320 H    5487  WAT5487     0.2052
  16458  H2       -12.4770  -28.9530  -19.9270 H    5487  WAT5487     0.2052
  16459  O         -7.9050  -23.5960  -21.8390 O.3  5488  WAT5488    -0.4105
  16460  H1        -7.8910  -24.5280  -22.0570 H    5488  WAT5488     0.2052
  16461  H2        -8.6130  -23.5100  -21.2000 H    5488  WAT5488     0.2052
  16462  O         -1.6940  -26.9560  -22.4920 O.3  5489  WAT5489    -0.4105
  16463  H1        -2.4200  -26.3630  -22.6890 H    5489  WAT5489     0.2052
  16464  H2        -1.1670  -26.9630  -23.2910 H    5489  WAT5489     0.2052
  16465  O         -6.1640  -25.2300  -28.9940 O.3  5490  WAT5490    -0.4105
  16466  H1        -5.8120  -25.8270  -29.6530 H    5490  WAT5490     0.2052
  16467  H2        -7.0480  -25.5550  -28.8230 H    5490  WAT5490     0.2052
  16468  O         -8.4720  -21.9550  -24.7450 O.3  5491  WAT5491    -0.4105
  16469  H1        -7.8280  -21.7490  -24.0670 H    5491  WAT5491     0.2052
  16470  H2        -8.1090  -22.7160  -25.1980 H    5491  WAT5491     0.2052
  16471  O         -7.1990  -23.9510  -26.0270 O.3  5492  WAT5492    -0.4105
  16472  H1        -6.5570  -24.6520  -25.9140 H    5492  WAT5492     0.2052
  16473  H2        -6.6740  -23.1720  -26.2070 H    5492  WAT5492     0.2052
  16474  O         -5.4250  -23.1520  -22.8230 O.3  5493  WAT5493    -0.4105
  16475  H1        -5.0890  -22.5650  -22.1460 H    5493  WAT5493     0.2052
  16476  H2        -6.3450  -23.2830  -22.5940 H    5493  WAT5493     0.2052
  16477  O        -17.5880  -21.3740  -21.0540 O.3  5494  WAT5494    -0.4105
  16478  H1       -17.4780  -22.3150  -21.1950 H    5494  WAT5494     0.2052
  16479  H2       -18.2390  -21.1090  -21.7030 H    5494  WAT5494     0.2052
  16480  O         -9.5960  -23.1030  -19.6550 O.3  5495  WAT5495    -0.4105
  16481  H1        -9.9170  -23.8220  -19.1100 H    5495  WAT5495     0.2052
  16482  H2       -10.2700  -22.4270  -19.5810 H    5495  WAT5495     0.2052
  16483  O         -3.9220  -28.7560  -29.7780 O.3  5496  WAT5496    -0.4105
  16484  H1        -4.8630  -28.7410  -29.6030 H    5496  WAT5496     0.2052
  16485  H2        -3.6070  -29.5430  -29.3320 H    5496  WAT5496     0.2052
  16486  O         -1.9190  -21.5850  -28.1030 O.3  5497  WAT5497    -0.4105
  16487  H1        -1.7950  -20.7620  -27.6300 H    5497  WAT5497     0.2052
  16488  H2        -1.0530  -21.7960  -28.4500 H    5497  WAT5497     0.2052
  16489  O        -14.4470  -19.4920  -28.4310 O.3  5498  WAT5498    -0.4105
  16490  H1       -13.7110  -20.0410  -28.1600 H    5498  WAT5498     0.2052
  16491  H2       -14.0630  -18.6270  -28.5700 H    5498  WAT5498     0.2052
  16492  O        -15.4420  -20.3070  -19.2430 O.3  5499  WAT5499    -0.4105
  16493  H1       -14.6400  -19.9860  -18.8290 H    5499  WAT5499     0.2052
  16494  H2       -15.9560  -20.6680  -18.5210 H    5499  WAT5499     0.2052
  16495  O         -6.6050  -24.2000  -19.2950 O.3  5500  WAT5500    -0.4105
  16496  H1        -7.2110  -24.1760  -20.0350 H    5500  WAT5500     0.2052
  16497  H2        -6.9100  -24.9310  -18.7580 H    5500  WAT5500     0.2052
  16498  O         -5.1750  -20.4710  -20.6840 O.3  5501  WAT5501    -0.4105
  16499  H1        -4.2230  -20.5560  -20.7340 H    5501  WAT5501     0.2052
  16500  H2        -5.3220  -19.8070  -20.0110 H    5501  WAT5501     0.2052
  16501  O        -17.7220  -27.8200  -20.2990 O.3  5502  WAT5502    -0.4105
  16502  H1       -17.2180  -28.3990  -19.7270 H    5502  WAT5502     0.2052
  16503  H2       -18.4610  -27.5360  -19.7610 H    5502  WAT5502     0.2052
  16504  O        -10.6680  -26.4130  -20.7650 O.3  5503  WAT5503    -0.4105
  16505  H1       -11.4340  -25.8450  -20.8500 H    5503  WAT5503     0.2052
  16506  H2       -10.4860  -26.7050  -21.6590 H    5503  WAT5503     0.2052
  16507  O         -3.5260  -24.6830  -20.2080 O.3  5504  WAT5504    -0.4105
  16508  H1        -2.7850  -24.3450  -20.7110 H    5504  WAT5504     0.2052
  16509  H2        -4.2880  -24.5130  -20.7610 H    5504  WAT5504     0.2052
  16510  O        -15.6900  -29.6770  -19.4040 O.3  5505  WAT5505    -0.4105
  16511  H1       -15.6490  -29.9760  -18.4950 H    5505  WAT5505     0.2052
  16512  H2       -14.8350  -29.2760  -19.5630 H    5505  WAT5505     0.2052
  16513  O         -4.8510  -26.6310  -21.6720 O.3  5506  WAT5506    -0.4105
  16514  H1        -4.4370  -26.4770  -20.8230 H    5506  WAT5506     0.2052
  16515  H2        -5.7860  -26.5060  -21.5100 H    5506  WAT5506     0.2052
  16516  O         -4.3790  -29.2910  -19.6680 O.3  5507  WAT5507    -0.4105
  16517  H1        -3.7970  -30.0460  -19.7560 H    5507  WAT5507     0.2052
  16518  H2        -4.2030  -28.7610  -20.4450 H    5507  WAT5507     0.2052
  16519  O        -10.0900  -26.6790  -23.7030 O.3  5508  WAT5508    -0.4105
  16520  H1        -9.6710  -25.8360  -23.8750 H    5508  WAT5508     0.2052
  16521  H2       -11.0090  -26.5420  -23.9320 H    5508  WAT5508     0.2052
  16522  O         -7.7530  -28.9470  -22.3190 O.3  5509  WAT5509    -0.4105
  16523  H1        -7.6340  -29.5430  -21.5790 H    5509  WAT5509     0.2052
  16524  H2        -6.8940  -28.9100  -22.7390 H    5509  WAT5509     0.2052
  16525  O         -5.4140  -28.3940  -23.7430 O.3  5510  WAT5510    -0.4105
  16526  H1        -5.9410  -27.8690  -24.3460 H    5510  WAT5510     0.2052
  16527  H2        -5.0710  -27.7610  -23.1120 H    5510  WAT5510     0.2052
  16528  O        -12.2390  -20.3740  -22.5870 O.3  5511  WAT5511    -0.4105
  16529  H1       -12.7770  -19.6490  -22.9060 H    5511  WAT5511     0.2052
  16530  H2       -11.9860  -20.8510  -23.3770 H    5511  WAT5511     0.2052
  16531  O         -9.3830  -19.1390  -22.3280 O.3  5512  WAT5512    -0.4105
  16532  H1        -9.4570  -18.2350  -22.0210 H    5512  WAT5512     0.2052
  16533  H2       -10.2850  -19.4570  -22.3560 H    5512  WAT5512     0.2052
  16534  O        -17.9800  -21.8110  -29.0250 O.3  5513  WAT5513    -0.4105
  16535  H1       -17.6500  -22.6790  -29.2570 H    5513  WAT5513     0.2052
  16536  H2       -17.5510  -21.6050  -28.1940 H    5513  WAT5513     0.2052
  16537  O        -17.4910  -20.9440  -26.2870 O.3  5514  WAT5514    -0.4105
  16538  H1       -17.9280  -20.7640  -25.4540 H    5514  WAT5514     0.2052
  16539  H2       -16.9230  -20.1870  -26.4290 H    5514  WAT5514     0.2052
  16540  O         -1.8550  -21.4420  -21.9990 O.3  5515  WAT5515    -0.4105
  16541  H1        -2.4550  -21.3830  -22.7430 H    5515  WAT5515     0.2052
  16542  H2        -1.7250  -22.3820  -21.8690 H    5515  WAT5515     0.2052
  16543  O         -0.1530  -26.1010  -29.3140 O.3  5516  WAT5516    -0.4105
  16544  H1         0.2180  -26.8840  -29.7210 H    5516  WAT5516     0.2052
  16545  H2         0.4870  -25.4120  -29.4930 H    5516  WAT5516     0.2052
  16546  O         -3.1700  -24.7170  -23.9010 O.3  5517  WAT5517    -0.4105
  16547  H1        -3.9840  -24.2870  -23.6390 H    5517  WAT5517     0.2052
  16548  H2        -2.7620  -24.1050  -24.5150 H    5517  WAT5517     0.2052
  16549  O        -16.6210  -28.0470  -25.3880 O.3  5518  WAT5518    -0.4105
  16550  H1       -16.2540  -28.1340  -24.5080 H    5518  WAT5518     0.2052
  16551  H2       -17.1900  -28.8100  -25.4870 H    5518  WAT5518     0.2052
  16552  O         -1.8210  -29.5780  -22.3750 O.3  5519  WAT5519    -0.4105
  16553  H1        -2.0520  -29.8070  -23.2750 H    5519  WAT5519     0.2052
  16554  H2        -1.5600  -28.6580  -22.4200 H    5519  WAT5519     0.2052
  16555  O        -15.2060  -23.5330  -20.2260 O.3  5520  WAT5520    -0.4105
  16556  H1       -15.2490  -23.9040  -19.3440 H    5520  WAT5520     0.2052
  16557  H2       -15.0750  -22.5960  -20.0850 H    5520  WAT5520     0.2052
  16558  O        -11.5050  -21.9780  -24.6250 O.3  5521  WAT5521    -0.4105
  16559  H1       -11.7460  -21.7100  -25.5120 H    5521  WAT5521     0.2052
  16560  H2       -10.5650  -21.8070  -24.5690 H    5521  WAT5521     0.2052
  16561  O         -0.2450  -19.9580  -23.8240 O.3  5522  WAT5522    -0.4105
  16562  H1        -0.7390  -19.5610  -24.5410 H    5522  WAT5522     0.2052
  16563  H2        -0.8530  -20.5830  -23.4300 H    5522  WAT5522     0.2052
  16564  O        -15.3670  -20.5870  -23.1060 O.3  5523  WAT5523    -0.4105
  16565  H1       -15.9610  -20.7190  -22.3670 H    5523  WAT5523     0.2052
  16566  H2       -15.3750  -21.4230  -23.5720 H    5523  WAT5523     0.2052
  16567  O         -2.5610  -19.3160  -26.5450 O.3  5524  WAT5524    -0.4105
  16568  H1        -3.0200  -18.5640  -26.9190 H    5524  WAT5524     0.2052
  16569  H2        -3.1890  -20.0350  -26.6030 H    5524  WAT5524     0.2052
  16570  O        -15.7360  -23.2210  -24.1550 O.3  5525  WAT5525    -0.4105
  16571  H1       -16.4620  -23.8410  -24.2220 H    5525  WAT5525     0.2052
  16572  H2       -15.6750  -22.8270  -25.0250 H    5525  WAT5525     0.2052
  16573  O        -12.1310  -21.0070  -27.3700 O.3  5526  WAT5526    -0.4105
  16574  H1       -11.6150  -21.6180  -27.8950 H    5526  WAT5526     0.2052
  16575  H2       -11.4810  -20.5040  -26.8790 H    5526  WAT5526     0.2052
  16576  O         -9.3920  -20.1160  -26.5430 O.3  5527  WAT5527    -0.4105
  16577  H1        -9.1040  -20.3710  -27.4200 H    5527  WAT5527     0.2052
  16578  H2        -8.8790  -20.6680  -25.9530 H    5527  WAT5527     0.2052
  16579  O         -9.3240  -19.1940  -19.1760 O.3  5528  WAT5528    -0.4105
  16580  H1        -8.3980  -19.4300  -19.1330 H    5528  WAT5528     0.2052
  16581  H2        -9.3390  -18.3670  -19.6580 H    5528  WAT5528     0.2052
  16582  O         -2.7570  -19.9670  -19.3520 O.3  5529  WAT5529    -0.4105
  16583  H1        -1.9640  -20.4630  -19.5600 H    5529  WAT5529     0.2052
  16584  H2        -2.4630  -19.2880  -18.7450 H    5529  WAT5529     0.2052
  16585  O        -25.4050   27.2280   26.6270 O.3  5530  WAT5530    -0.4105
  16586  H1       -25.4860   26.3130   26.3560 H    5530  WAT5530     0.2052
  16587  H2       -25.8190   27.7240   25.9210 H    5530  WAT5530     0.2052
  16588  O        -27.2730   29.0060   28.5080 O.3  5531  WAT5531    -0.4105
  16589  H1       -28.0490   28.5260   28.7980 H    5531  WAT5531     0.2052
  16590  H2       -26.6220   28.3260   28.3330 H    5531  WAT5531     0.2052
  16591  O        -26.8020   24.4880   28.7420 O.3  5532  WAT5532    -0.4105
  16592  H1       -26.4250   23.6150   28.6290 H    5532  WAT5532     0.2052
  16593  H2       -26.9000   24.8240   27.8510 H    5532  WAT5532     0.2052
  16594  O        -23.0190   21.9830   25.6740 O.3  5533  WAT5533    -0.4105
  16595  H1       -22.1980   21.4930   25.7170 H    5533  WAT5533     0.2052
  16596  H2       -22.9860   22.5730   26.4280 H    5533  WAT5533     0.2052
  16597  O        -22.7830   23.9230   28.4470 O.3  5534  WAT5534    -0.4105
  16598  H1       -23.4880   24.2120   29.0280 H    5534  WAT5534     0.2052
  16599  H2       -22.4220   24.7330   28.0870 H    5534  WAT5534     0.2052
  16600  O        -19.7150   23.3690   28.8380 O.3  5535  WAT5535    -0.4105
  16601  H1       -20.6620   23.4030   28.9700 H    5535  WAT5535     0.2052
  16602  H2       -19.3900   24.1830   29.2230 H    5535  WAT5535     0.2052
  16603  O        -26.7950   27.7330   23.8700 O.3  5536  WAT5536    -0.4105
  16604  H1       -27.7220   27.6670   24.0990 H    5536  WAT5536     0.2052
  16605  H2       -26.6420   28.6710   23.7550 H    5536  WAT5536     0.2052
  16606  O        -26.8080   24.0050   20.8660 O.3  5537  WAT5537    -0.4105
  16607  H1       -27.7470   24.1670   20.9520 H    5537  WAT5537     0.2052
  16608  H2       -26.4890   24.7240   20.3200 H    5537  WAT5537     0.2052
  16609  O        -22.7650   29.2960   24.3730 O.3  5538  WAT5538    -0.4105
  16610  H1       -23.3840   28.9570   23.7260 H    5538  WAT5538     0.2052
  16611  H2       -22.7820   28.6510   25.0810 H    5538  WAT5538     0.2052
  16612  O        -24.5880   28.5340   21.3810 O.3  5539  WAT5539    -0.4105
  16613  H1       -24.1490   27.6960   21.2340 H    5539  WAT5539     0.2052
  16614  H2       -23.8750   29.1670   21.4670 H    5539  WAT5539     0.2052
  16615  O        -21.0070   19.7880   19.6950 O.3  5540  WAT5540    -0.4105
  16616  H1       -21.3190   19.8810   20.5950 H    5540  WAT5540     0.2052
  16617  H2       -20.2450   20.3670   19.6440 H    5540  WAT5540     0.2052
  16618  O        -28.9060   20.1190   22.4150 O.3  5541  WAT5541    -0.4105
  16619  H1       -29.5310   20.1150   23.1410 H    5541  WAT5541     0.2052
  16620  H2       -28.9930   19.2520   22.0190 H    5541  WAT5541     0.2052
  16621  O        -25.0010   25.6280   23.8620 O.3  5542  WAT5542    -0.4105
  16622  H1       -25.6000   26.3510   23.6780 H    5542  WAT5542     0.2052
  16623  H2       -24.4530   25.5650   23.0800 H    5542  WAT5542     0.2052
  16624  O        -26.3940   24.2640   25.8920 O.3  5543  WAT5543    -0.4105
  16625  H1       -26.0010   24.5810   25.0790 H    5543  WAT5543     0.2052
  16626  H2       -26.0330   23.3850   26.0070 H    5543  WAT5543     0.2052
  16627  O        -29.3710   23.5300   28.3930 O.3  5544  WAT5544    -0.4105
  16628  H1       -29.3670   23.0890   27.5430 H    5544  WAT5544     0.2052
  16629  H2       -28.4760   23.8520   28.5000 H    5544  WAT5544     0.2052
  16630  O        -29.3090   24.5310   21.3830 O.3  5545  WAT5545    -0.4105
  16631  H1       -29.1880   24.4900   22.3320 H    5545  WAT5545     0.2052
  16632  H2       -29.6940   25.3940   21.2280 H    5545  WAT5545     0.2052
  16633  O        -26.5320   21.2270   22.9900 O.3  5546  WAT5546    -0.4105
  16634  H1       -27.3460   20.7290   22.9140 H    5546  WAT5546     0.2052
  16635  H2       -26.7260   22.0670   22.5730 H    5546  WAT5546     0.2052
  16636  O        -23.8180   25.5990   21.2860 O.3  5547  WAT5547    -0.4105
  16637  H1       -22.9300   25.9110   21.1110 H    5547  WAT5547     0.2052
  16638  H2       -23.8470   24.7270   20.8940 H    5547  WAT5547     0.2052
  16639  O        -21.5460   26.9110   20.7540 O.3  5548  WAT5548    -0.4105
  16640  H1       -21.6300   27.3420   19.9040 H    5548  WAT5548     0.2052
  16641  H2       -20.8270   27.3700   21.1870 H    5548  WAT5548     0.2052
  16642  O        -29.5500   28.8580   24.3490 O.3  5549  WAT5549    -0.4105
  16643  H1       -29.0930   29.6680   24.5750 H    5549  WAT5549     0.2052
  16644  H2       -29.9010   28.5400   25.1810 H    5549  WAT5549     0.2052
  16645  O        -21.7890   22.4090   22.8410 O.3  5550  WAT5550    -0.4105
  16646  H1       -22.4180   22.5130   22.1270 H    5550  WAT5550     0.2052
  16647  H2       -22.2840   22.6280   23.6300 H    5550  WAT5550     0.2052
  16648  O        -25.7890   21.4120   25.6960 O.3  5551  WAT5551    -0.4105
  16649  H1       -25.9120   21.4310   24.7470 H    5551  WAT5551     0.2052
  16650  H2       -24.8410   21.4600   25.8160 H    5551  WAT5551     0.2052
  16651  O        -22.6960   27.5670   26.5450 O.3  5552  WAT5552    -0.4105
  16652  H1       -23.6370   27.5820   26.7200 H    5552  WAT5552     0.2052
  16653  H2       -22.3820   26.7810   26.9910 H    5552  WAT5552     0.2052
  16654  O        -28.1730   28.2690   19.3270 O.3  5553  WAT5553    -0.4105
  16655  H1       -27.6530   27.5540   18.9610 H    5553  WAT5553     0.2052
  16656  H2       -27.5260   28.9080   19.6270 H    5553  WAT5553     0.2052
  16657  O        -24.3110   20.1300   21.5540 O.3  5554  WAT5554    -0.4105
  16658  H1       -24.0310   19.2860   21.9100 H    5554  WAT5554     0.2052
  16659  H2       -25.0850   20.3620   22.0680 H    5554  WAT5554     0.2052
  16660  O        -23.4840   22.6850   20.6170 O.3  5555  WAT5555    -0.4105
  16661  H1       -23.0650   22.4980   19.7770 H    5555  WAT5555     0.2052
  16662  H2       -23.7900   21.8330   20.9270 H    5555  WAT5555     0.2052
  16663  O        -19.9850   27.5980   24.3150 O.3  5556  WAT5556    -0.4105
  16664  H1       -20.3600   26.8300   23.8830 H    5556  WAT5556     0.2052
  16665  H2       -20.7150   27.9800   24.8020 H    5556  WAT5556     0.2052
  16666  O        -20.7100   25.8230   27.6150 O.3  5557  WAT5557    -0.4105
  16667  H1       -20.1860   25.3300   26.9840 H    5557  WAT5557     0.2052
  16668  H2       -20.1240   25.9580   28.3600 H    5557  WAT5557     0.2052
  16669  O        -21.2200   25.0810   23.5550 O.3  5558  WAT5558    -0.4105
  16670  H1       -20.7240   24.8480   24.3390 H    5558  WAT5558     0.2052
  16671  H2       -21.4180   24.2420   23.1380 H    5558  WAT5558     0.2052
  16672  O        -19.7910   23.7170   26.0880 O.3  5559  WAT5559    -0.4105
  16673  H1       -19.9010   23.5620   27.0270 H    5559  WAT5559     0.2052
  16674  H2       -19.0300   23.1890   25.8460 H    5559  WAT5559     0.2052
  16675  O        -18.9020   21.5480   19.3290 O.3  5560  WAT5560    -0.4105
  16676  H1       -17.9770   21.4160   19.1210 H    5560  WAT5560     0.2052
  16677  H2       -18.9240   21.6270   20.2830 H    5560  WAT5560     0.2052
  16678  O        -18.8280   22.3190   21.9550 O.3  5561  WAT5561    -0.4105
  16679  H1       -19.6230   22.2530   22.4840 H    5561  WAT5561     0.2052
  16680  H2       -18.6240   23.2540   21.9430 H    5561  WAT5561     0.2052
  16681  O        -22.3960   20.6480   28.4040 O.3  5562  WAT5562    -0.4105
  16682  H1       -21.9550   20.5930   27.5570 H    5562  WAT5562     0.2052
  16683  H2       -22.6650   21.5640   28.4760 H    5562  WAT5562     0.2052
  16684  O        -20.5320   20.2800   26.4150 O.3  5563  WAT5563    -0.4105
  16685  H1       -20.5930   19.3360   26.2680 H    5563  WAT5563     0.2052
  16686  H2       -19.7530   20.3880   26.9610 H    5563  WAT5563     0.2052
  16687  O        -29.0630   22.3650   25.8710 O.3  5564  WAT5564    -0.4105
  16688  H1       -29.8750   21.9900   25.5310 H    5564  WAT5564     0.2052
  16689  H2       -28.5590   21.6090   26.1730 H    5564  WAT5564     0.2052
  16690  O        -24.5600   19.0290   27.1090 O.3  5565  WAT5565    -0.4105
  16691  H1       -23.9570   19.6010   27.5840 H    5565  WAT5565     0.2052
  16692  H2       -25.3010   19.5930   26.8870 H    5565  WAT5565     0.2052
  16693  O        -21.4170   19.4310   22.3840 O.3  5566  WAT5566    -0.4105
  16694  H1       -21.2220   20.3290   22.6500 H    5566  WAT5566     0.2052
  16695  H2       -22.2040   19.2000   22.8770 H    5566  WAT5566     0.2052
  16696  O        -25.4050   27.2280    7.8520 O.3  5567  WAT5567    -0.4105
  16697  H1       -25.4860   26.3130    7.5820 H    5567  WAT5567     0.2052
  16698  H2       -25.8190   27.7240    7.1460 H    5567  WAT5567     0.2052
  16699  O        -27.2730   29.0060    9.7330 O.3  5568  WAT5568    -0.4105
  16700  H1       -28.0490   28.5260   10.0230 H    5568  WAT5568     0.2052
  16701  H2       -26.6220   28.3260    9.5590 H    5568  WAT5568     0.2052
  16702  O        -26.8020   24.4880    9.9670 O.3  5569  WAT5569    -0.4105
  16703  H1       -26.4250   23.6150    9.8550 H    5569  WAT5569     0.2052
  16704  H2       -26.9000   24.8240    9.0760 H    5569  WAT5569     0.2052
  16705  O        -23.0190   21.9830    6.9000 O.3  5570  WAT5570    -0.4105
  16706  H1       -22.1980   21.4930    6.9430 H    5570  WAT5570     0.2052
  16707  H2       -22.9860   22.5730    7.6530 H    5570  WAT5570     0.2052
  16708  O        -18.7290   24.0000   13.4640 O.3  5571  WAT5571    -0.4105
  16709  H1       -19.4340   24.3880   12.9460 H    5571  WAT5571     0.2052
  16710  H2       -18.4640   24.6950   14.0670 H    5571  WAT5571     0.2052
  16711  O        -22.7830   23.9230    9.6730 O.3  5572  WAT5572    -0.4105
  16712  H1       -23.4880   24.2120   10.2530 H    5572  WAT5572     0.2052
  16713  H2       -22.4220   24.7330    9.3130 H    5572  WAT5572     0.2052
  16714  O        -19.7150   23.3690   10.0640 O.3  5573  WAT5573    -0.4105
  16715  H1       -20.6620   23.4030   10.1950 H    5573  WAT5573     0.2052
  16716  H2       -19.3900   24.1830   10.4490 H    5573  WAT5573     0.2052
  16717  O        -26.7950   27.7330    5.0950 O.3  5574  WAT5574    -0.4105
  16718  H1       -27.7220   27.6670    5.3240 H    5574  WAT5574     0.2052
  16719  H2       -26.6420   28.6710    4.9810 H    5574  WAT5574     0.2052
  16720  O        -26.8080   24.0050    2.0920 O.3  5575  WAT5575    -0.4105
  16721  H1       -27.7470   24.1670    2.1770 H    5575  WAT5575     0.2052
  16722  H2       -26.4890   24.7240    1.5460 H    5575  WAT5575     0.2052
  16723  O        -20.2860   28.6870   12.0700 O.3  5576  WAT5576    -0.4105
  16724  H1       -21.1140   28.7560   11.5950 H    5576  WAT5576     0.2052
  16725  H2       -19.6910   29.2720   11.6020 H    5576  WAT5576     0.2052
  16726  O        -22.7650   29.2960    5.5990 O.3  5577  WAT5577    -0.4105
  16727  H1       -23.3840   28.9570    4.9520 H    5577  WAT5577     0.2052
  16728  H2       -22.7820   28.6510    6.3070 H    5577  WAT5577     0.2052
  16729  O        -23.3220   25.4740   13.0160 O.3  5578  WAT5578    -0.4105
  16730  H1       -23.7350   26.2990   13.2700 H    5578  WAT5578     0.2052
  16731  H2       -24.0550   24.8880   12.8230 H    5578  WAT5578     0.2052
  16732  O        -24.5880   28.5340    2.6060 O.3  5579  WAT5579    -0.4105
  16733  H1       -24.1490   27.6960    2.4600 H    5579  WAT5579     0.2052
  16734  H2       -23.8750   29.1670    2.6930 H    5579  WAT5579     0.2052
  16735  O        -21.0070   19.7880    0.9200 O.3  5580  WAT5580    -0.4105
  16736  H1       -21.3190   19.8810    1.8200 H    5580  WAT5580     0.2052
  16737  H2       -20.2450   20.3670    0.8700 H    5580  WAT5580     0.2052
  16738  O        -19.7960   24.5260   16.8980 O.3  5581  WAT5581    -0.4105
  16739  H1       -20.4120   25.0340   16.3690 H    5581  WAT5581     0.2052
  16740  H2       -20.1170   23.6250   16.8400 H    5581  WAT5581     0.2052
  16741  O        -27.7350   23.3650   14.3640 O.3  5582  WAT5582    -0.4105
  16742  H1       -28.1970   23.5730   15.1760 H    5582  WAT5582     0.2052
  16743  H2       -28.1370   22.5510   14.0610 H    5582  WAT5582     0.2052
  16744  O        -22.7350   24.5860   15.4940 O.3  5583  WAT5583    -0.4105
  16745  H1       -23.5850   24.2860   15.8150 H    5583  WAT5583     0.2052
  16746  H2       -22.8940   24.8300   14.5820 H    5583  WAT5583     0.2052
  16747  O        -25.6400   26.0860   17.5930 O.3  5584  WAT5584    -0.4105
  16748  H1       -25.3140   25.2520   17.2540 H    5584  WAT5584     0.2052
  16749  H2       -24.8520   26.6090   17.7410 H    5584  WAT5584     0.2052
  16750  O        -28.9060   20.1190    3.6410 O.3  5585  WAT5585    -0.4105
  16751  H1       -29.5310   20.1150    4.3660 H    5585  WAT5585     0.2052
  16752  H2       -28.9930   19.2520    3.2450 H    5585  WAT5585     0.2052
  16753  O        -25.0010   25.6280    5.0880 O.3  5586  WAT5586    -0.4105
  16754  H1       -25.6000   26.3510    4.9040 H    5586  WAT5586     0.2052
  16755  H2       -24.4530   25.5650    4.3050 H    5586  WAT5586     0.2052
  16756  O        -29.7910   26.5200   17.1550 O.3  5587  WAT5587    -0.4105
  16757  H1       -29.8860   25.5790   17.0050 H    5587  WAT5587     0.2052
  16758  H2       -28.9470   26.7410   16.7590 H    5587  WAT5587     0.2052
  16759  O        -26.3940   24.2640    7.1180 O.3  5588  WAT5588    -0.4105
  16760  H1       -26.0010   24.5810    6.3050 H    5588  WAT5588     0.2052
  16761  H2       -26.0330   23.3850    7.2320 H    5588  WAT5588     0.2052
  16762  O        -28.0850   23.0150   18.3780 O.3  5589  WAT5589    -0.4105
  16763  H1       -28.7750   22.8220   19.0120 H    5589  WAT5589     0.2052
  16764  H2       -27.3420   23.2980   18.9100 H    5589  WAT5589     0.2052
  16765  O        -25.8090   26.8550   11.2130 O.3  5590  WAT5590    -0.4105
  16766  H1       -26.5410   27.3630   11.5620 H    5590  WAT5590     0.2052
  16767  H2       -26.2060   26.0380   10.9120 H    5590  WAT5590     0.2052
  16768  O        -29.3710   23.5300    9.6180 O.3  5591  WAT5591    -0.4105
  16769  H1       -29.3670   23.0890    8.7690 H    5591  WAT5591     0.2052
  16770  H2       -28.4760   23.8520    9.7250 H    5591  WAT5591     0.2052
  16771  O        -29.3090   24.5310    2.6090 O.3  5592  WAT5592    -0.4105
  16772  H1       -29.1880   24.4900    3.5580 H    5592  WAT5592     0.2052
  16773  H2       -29.6940   25.3940    2.4540 H    5592  WAT5592     0.2052
  16774  O        -25.3460   22.3080   10.6250 O.3  5593  WAT5593    -0.4105
  16775  H1       -25.3290   22.7590   11.4690 H    5593  WAT5593     0.2052
  16776  H2       -25.5950   21.4090   10.8390 H    5593  WAT5593     0.2052
  16777  O        -21.9190   19.7210   16.4640 O.3  5594  WAT5594    -0.4105
  16778  H1       -21.5950   18.9900   16.9900 H    5594  WAT5594     0.2052
  16779  H2       -21.8840   19.4030   15.5620 H    5594  WAT5594     0.2052
  16780  O        -29.0700   27.5900   11.3650 O.3  5595  WAT5595    -0.4105
  16781  H1       -28.7030   27.1160   12.1110 H    5595  WAT5595     0.2052
  16782  H2       -29.2600   28.4640   11.7060 H    5595  WAT5595     0.2052
  16783  O        -26.5320   21.2270    4.2150 O.3  5596  WAT5596    -0.4105
  16784  H1       -27.3460   20.7290    4.1400 H    5596  WAT5596     0.2052
  16785  H2       -26.7260   22.0670    3.7990 H    5596  WAT5596     0.2052
  16786  O        -23.8180   25.5990    2.5120 O.3  5597  WAT5597    -0.4105
  16787  H1       -22.9300   25.9110    2.3370 H    5597  WAT5597     0.2052
  16788  H2       -23.8470   24.7270    2.1200 H    5597  WAT5597     0.2052
  16789  O        -21.5460   26.9110    1.9800 O.3  5598  WAT5598    -0.4105
  16790  H1       -21.6300   27.3420    1.1290 H    5598  WAT5598     0.2052
  16791  H2       -20.8270   27.3700    2.4120 H    5598  WAT5598     0.2052
  16792  O        -29.5500   28.8580    5.5750 O.3  5599  WAT5599    -0.4105
  16793  H1       -29.0930   29.6680    5.8010 H    5599  WAT5599     0.2052
  16794  H2       -29.9010   28.5400    6.4060 H    5599  WAT5599     0.2052
  16795  O        -25.1550   23.4530   13.2580 O.3  5600  WAT5600    -0.4105
  16796  H1       -24.7870   22.6320   13.5860 H    5600  WAT5600     0.2052
  16797  H2       -26.0150   23.5130   13.6730 H    5600  WAT5600     0.2052
  16798  O        -21.7890   22.4090    4.0660 O.3  5601  WAT5601    -0.4105
  16799  H1       -22.4180   22.5130    3.3520 H    5601  WAT5601     0.2052
  16800  H2       -22.2840   22.6280    4.8560 H    5601  WAT5601     0.2052
  16801  O        -28.1950   26.1070   13.4820 O.3  5602  WAT5602    -0.4105
  16802  H1       -27.6970   26.5810   14.1470 H    5602  WAT5602     0.2052
  16803  H2       -28.0530   25.1830   13.6890 H    5602  WAT5602     0.2052
  16804  O        -25.7890   21.4120    6.9220 O.3  5603  WAT5603    -0.4105
  16805  H1       -25.9120   21.4310    5.9730 H    5603  WAT5603     0.2052
  16806  H2       -24.8410   21.4600    7.0420 H    5603  WAT5603     0.2052
  16807  O        -20.9880   22.3240   14.3240 O.3  5604  WAT5604    -0.4105
  16808  H1       -21.4910   23.0640   14.6640 H    5604  WAT5604     0.2052
  16809  H2       -20.1730   22.7120   14.0080 H    5604  WAT5604     0.2052
  16810  O        -22.6960   27.5670    7.7700 O.3  5605  WAT5605    -0.4105
  16811  H1       -23.6370   27.5820    7.9450 H    5605  WAT5605     0.2052
  16812  H2       -22.3820   26.7810    8.2170 H    5605  WAT5605     0.2052
  16813  O        -28.1730   28.2690    0.5530 O.3  5606  WAT5606    -0.4105
  16814  H1       -27.6530   27.5540    0.1870 H    5606  WAT5606     0.2052
  16815  H2       -27.5260   28.9080    0.8530 H    5606  WAT5606     0.2052
  16816  O        -23.6260   29.6920   15.8760 O.3  5607  WAT5607    -0.4105
  16817  H1       -23.2110   29.8470   16.7250 H    5607  WAT5607     0.2052
  16818  H2       -24.5600   29.8180   16.0390 H    5607  WAT5607     0.2052
  16819  O        -23.1530   27.0320   17.8800 O.3  5608  WAT5608    -0.4105
  16820  H1       -22.5710   26.2770   17.7920 H    5608  WAT5608     0.2052
  16821  H2       -22.9770   27.5620   17.1030 H    5608  WAT5608     0.2052
  16822  O        -29.2700   20.7490   13.2250 O.3  5609  WAT5609    -0.4105
  16823  H1       -29.7180   20.7710   12.3790 H    5609  WAT5609     0.2052
  16824  H2       -29.9030   20.3510   13.8220 H    5609  WAT5609     0.2052
  16825  O        -26.5280   27.3760   15.2300 O.3  5610  WAT5610    -0.4105
  16826  H1       -26.4080   26.7800   15.9690 H    5610  WAT5610     0.2052
  16827  H2       -25.6680   27.4130   14.8100 H    5610  WAT5610     0.2052
  16828  O        -24.1890   27.9290   13.8060 O.3  5611  WAT5611    -0.4105
  16829  H1       -24.7150   28.4540   13.2030 H    5611  WAT5611     0.2052
  16830  H2       -23.8460   28.5620   14.4370 H    5611  WAT5611     0.2052
  16831  O        -24.9410   23.5340   16.7210 O.3  5612  WAT5612    -0.4105
  16832  H1       -25.6300   22.8730   16.6560 H    5612  WAT5612     0.2052
  16833  H2       -24.2210   23.0880   17.1650 H    5612  WAT5612     0.2052
  16834  O        -24.3110   20.1300    2.7800 O.3  5613  WAT5613    -0.4105
  16835  H1       -24.0310   19.2860    3.1360 H    5613  WAT5613     0.2052
  16836  H2       -25.0850   20.3620    3.2940 H    5613  WAT5613     0.2052
  16837  O        -23.4840   22.6850    1.8430 O.3  5614  WAT5614    -0.4105
  16838  H1       -23.0650   22.4980    1.0020 H    5614  WAT5614     0.2052
  16839  H2       -23.7900   21.8330    2.1530 H    5614  WAT5614     0.2052
  16840  O        -19.9850   27.5980    5.5400 O.3  5615  WAT5615    -0.4105
  16841  H1       -20.3600   26.8300    5.1080 H    5615  WAT5615     0.2052
  16842  H2       -20.7150   27.9800    6.0280 H    5615  WAT5615     0.2052
  16843  O        -20.5950   26.7450   15.1740 O.3  5616  WAT5616    -0.4105
  16844  H1       -20.8260   26.5160   14.2740 H    5616  WAT5616     0.2052
  16845  H2       -20.3340   27.6650   15.1290 H    5616  WAT5616     0.2052
  16846  O        -22.1560   21.9700   17.9520 O.3  5617  WAT5617    -0.4105
  16847  H1       -21.2790   21.9790   18.3360 H    5617  WAT5617     0.2052
  16848  H2       -22.1440   21.2330   17.3410 H    5617  WAT5617     0.2052
  16849  O        -20.7100   25.8230    8.8410 O.3  5618  WAT5618    -0.4105
  16850  H1       -20.1860   25.3300    8.2100 H    5618  WAT5618     0.2052
  16851  H2       -20.1240   25.9580    9.5860 H    5618  WAT5618     0.2052
  16852  O        -20.5310   25.9070   12.3630 O.3  5619  WAT5619    -0.4105
  16853  H1       -21.4810   25.8740   12.4770 H    5619  WAT5619     0.2052
  16854  H2       -20.3490   26.8170   12.1280 H    5619  WAT5619     0.2052
  16855  O        -21.2200   25.0810    4.7800 O.3  5620  WAT5620    -0.4105
  16856  H1       -20.7240   24.8480    5.5650 H    5620  WAT5620     0.2052
  16857  H2       -21.4180   24.2420    4.3640 H    5620  WAT5620     0.2052
  16858  O        -19.7910   23.7170    7.3140 O.3  5621  WAT5621    -0.4105
  16859  H1       -19.9010   23.5620    8.2520 H    5621  WAT5621     0.2052
  16860  H2       -19.0300   23.1890    7.0720 H    5621  WAT5621     0.2052
  16861  O        -21.4440   19.6560   13.7720 O.3  5622  WAT5622    -0.4105
  16862  H1       -20.8070   20.2700   14.1380 H    5622  WAT5622     0.2052
  16863  H2       -21.2970   19.6920   12.8270 H    5622  WAT5622     0.2052
  16864  O        -18.9020   21.5480    0.5550 O.3  5623  WAT5623    -0.4105
  16865  H1       -17.9770   21.4160    0.3460 H    5623  WAT5623     0.2052
  16866  H2       -18.9240   21.6270    1.5080 H    5623  WAT5623     0.2052
  16867  O        -18.8280   22.3190    3.1800 O.3  5624  WAT5624    -0.4105
  16868  H1       -19.6230   22.2530    3.7100 H    5624  WAT5624     0.2052
  16869  H2       -18.6240   23.2540    3.1690 H    5624  WAT5624     0.2052
  16870  O        -28.0740   20.8090   16.6800 O.3  5625  WAT5625    -0.4105
  16871  H1       -28.1350   21.4010   17.4290 H    5625  WAT5625     0.2052
  16872  H2       -27.1340   20.7010   16.5350 H    5625  WAT5625     0.2052
  16873  O        -25.4370   20.4660   16.3190 O.3  5626  WAT5626    -0.4105
  16874  H1       -24.8230   20.7840   15.6570 H    5626  WAT5626     0.2052
  16875  H2       -24.8920   19.9810   16.9390 H    5626  WAT5626     0.2052
  16876  O        -24.6960   19.0290   12.6460 O.3  5627  WAT5627    -0.4105
  16877  H1       -25.5700   19.3630   12.4430 H    5627  WAT5627     0.2052
  16878  H2       -24.8050   18.5560   13.4710 H    5627  WAT5627     0.2052
  16879  O        -23.7890   21.2360   14.0300 O.3  5628  WAT5628    -0.4105
  16880  H1       -24.1170   20.4210   13.6500 H    5628  WAT5628     0.2052
  16881  H2       -22.8400   21.1930   13.9070 H    5628  WAT5628     0.2052
  16882  O        -26.9480   19.9460   11.5850 O.3  5629  WAT5629    -0.4105
  16883  H1       -27.7310   20.4210   11.8650 H    5629  WAT5629     0.2052
  16884  H2       -27.2420   19.0410   11.4770 H    5629  WAT5629     0.2052
  16885  O        -22.3960   20.6480    9.6300 O.3  5630  WAT5630    -0.4105
  16886  H1       -21.9550   20.5930    8.7820 H    5630  WAT5630     0.2052
  16887  H2       -22.6650   21.5640    9.7010 H    5630  WAT5630     0.2052
  16888  O        -20.5320   20.2800    7.6410 O.3  5631  WAT5631    -0.4105
  16889  H1       -20.5930   19.3360    7.4940 H    5631  WAT5631     0.2052
  16890  H2       -19.7530   20.3880    8.1860 H    5631  WAT5631     0.2052
  16891  O        -29.0630   22.3650    7.0970 O.3  5632  WAT5632    -0.4105
  16892  H1       -29.8750   21.9900    6.7560 H    5632  WAT5632     0.2052
  16893  H2       -28.5590   21.6090    7.3990 H    5632  WAT5632     0.2052
  16894  O        -24.5600   19.0290    8.3350 O.3  5633  WAT5633    -0.4105
  16895  H1       -23.9570   19.6010    8.8100 H    5633  WAT5633     0.2052
  16896  H2       -25.3010   19.5930    8.1130 H    5633  WAT5633     0.2052
  16897  O        -21.4170   19.4310    3.6090 O.3  5634  WAT5634    -0.4105
  16898  H1       -21.2220   20.3290    3.8760 H    5634  WAT5634     0.2052
  16899  H2       -22.2040   19.2000    4.1020 H    5634  WAT5634     0.2052
  16900  O        -24.3110   19.2080   18.7150 O.3  5635  WAT5635    -0.4105
  16901  H1       -24.4240   19.5280   19.6100 H    5635  WAT5635     0.2052
  16902  H2       -23.4940   19.6100   18.4180 H    5635  WAT5635     0.2052
  16903  O        -25.4050   27.2280  -10.9220 O.3  5636  WAT5636    -0.4105
  16904  H1       -25.4860   26.3130  -11.1930 H    5636  WAT5636     0.2052
  16905  H2       -25.8190   27.7240  -11.6280 H    5636  WAT5636     0.2052
  16906  O        -27.2730   29.0060   -9.0410 O.3  5637  WAT5637    -0.4105
  16907  H1       -28.0490   28.5260   -8.7510 H    5637  WAT5637     0.2052
  16908  H2       -26.6220   28.3260   -9.2150 H    5637  WAT5637     0.2052
  16909  O        -26.8020   24.4880   -8.8070 O.3  5638  WAT5638    -0.4105
  16910  H1       -26.4250   23.6150   -8.9200 H    5638  WAT5638     0.2052
  16911  H2       -26.9000   24.8240   -9.6980 H    5638  WAT5638     0.2052
  16912  O        -23.0190   21.9830  -11.8740 O.3  5639  WAT5639    -0.4105
  16913  H1       -22.1980   21.4930  -11.8320 H    5639  WAT5639     0.2052
  16914  H2       -22.9860   22.5730  -11.1210 H    5639  WAT5639     0.2052
  16915  O        -18.7290   24.0000   -5.3100 O.3  5640  WAT5640    -0.4105
  16916  H1       -19.4340   24.3880   -5.8280 H    5640  WAT5640     0.2052
  16917  H2       -18.4640   24.6950   -4.7080 H    5640  WAT5640     0.2052
  16918  O        -22.7830   23.9230   -9.1010 O.3  5641  WAT5641    -0.4105
  16919  H1       -23.4880   24.2120   -8.5210 H    5641  WAT5641     0.2052
  16920  H2       -22.4220   24.7330   -9.4620 H    5641  WAT5641     0.2052
  16921  O        -19.7150   23.3690   -8.7110 O.3  5642  WAT5642    -0.4105
  16922  H1       -20.6620   23.4030   -8.5790 H    5642  WAT5642     0.2052
  16923  H2       -19.3900   24.1830   -8.3260 H    5642  WAT5642     0.2052
  16924  O        -26.7950   27.7330  -13.6790 O.3  5643  WAT5643    -0.4105
  16925  H1       -27.7220   27.6670  -13.4500 H    5643  WAT5643     0.2052
  16926  H2       -26.6420   28.6710  -13.7930 H    5643  WAT5643     0.2052
  16927  O        -26.8080   24.0050  -16.6820 O.3  5644  WAT5644    -0.4105
  16928  H1       -27.7470   24.1670  -16.5970 H    5644  WAT5644     0.2052
  16929  H2       -26.4890   24.7240  -17.2290 H    5644  WAT5644     0.2052
  16930  O        -20.2860   28.6870   -6.7040 O.3  5645  WAT5645    -0.4105
  16931  H1       -21.1140   28.7560   -7.1790 H    5645  WAT5645     0.2052
  16932  H2       -19.6910   29.2720   -7.1730 H    5645  WAT5645     0.2052
  16933  O        -22.7650   29.2960  -13.1750 O.3  5646  WAT5646    -0.4105
  16934  H1       -23.3840   28.9570  -13.8230 H    5646  WAT5646     0.2052
  16935  H2       -22.7820   28.6510  -12.4670 H    5646  WAT5646     0.2052
  16936  O        -23.3220   25.4740   -5.7590 O.3  5647  WAT5647    -0.4105
  16937  H1       -23.7350   26.2990   -5.5050 H    5647  WAT5647     0.2052
  16938  H2       -24.0550   24.8880   -5.9510 H    5647  WAT5647     0.2052
  16939  O        -24.5880   28.5340  -16.1680 O.3  5648  WAT5648    -0.4105
  16940  H1       -24.1490   27.6960  -16.3140 H    5648  WAT5648     0.2052
  16941  H2       -23.8750   29.1670  -16.0820 H    5648  WAT5648     0.2052
  16942  O        -21.0070   19.7880  -17.8540 O.3  5649  WAT5649    -0.4105
  16943  H1       -21.3190   19.8810  -16.9540 H    5649  WAT5649     0.2052
  16944  H2       -20.2450   20.3670  -17.9040 H    5649  WAT5649     0.2052
  16945  O        -19.7960   24.5260   -1.8770 O.3  5650  WAT5650    -0.4105
  16946  H1       -20.4120   25.0340   -2.4050 H    5650  WAT5650     0.2052
  16947  H2       -20.1170   23.6250   -1.9340 H    5650  WAT5650     0.2052
  16948  O        -27.7350   23.3650   -4.4100 O.3  5651  WAT5651    -0.4105
  16949  H1       -28.1970   23.5730   -3.5980 H    5651  WAT5651     0.2052
  16950  H2       -28.1370   22.5510   -4.7130 H    5651  WAT5651     0.2052
  16951  O        -22.7350   24.5860   -3.2810 O.3  5652  WAT5652    -0.4105
  16952  H1       -23.5850   24.2860   -2.9600 H    5652  WAT5652     0.2052
  16953  H2       -22.8940   24.8300   -4.1920 H    5652  WAT5652     0.2052
  16954  O        -25.6400   26.0860   -1.1810 O.3  5653  WAT5653    -0.4105
  16955  H1       -25.3140   25.2520   -1.5210 H    5653  WAT5653     0.2052
  16956  H2       -24.8520   26.6090   -1.0330 H    5653  WAT5653     0.2052
  16957  O        -28.9060   20.1190  -15.1330 O.3  5654  WAT5654    -0.4105
  16958  H1       -29.5310   20.1150  -14.4080 H    5654  WAT5654     0.2052
  16959  H2       -28.9930   19.2520  -15.5300 H    5654  WAT5654     0.2052
  16960  O        -25.0010   25.6280  -13.6870 O.3  5655  WAT5655    -0.4105
  16961  H1       -25.6000   26.3510  -13.8700 H    5655  WAT5655     0.2052
  16962  H2       -24.4530   25.5650  -14.4690 H    5655  WAT5655     0.2052
  16963  O        -29.7910   26.5200   -1.6200 O.3  5656  WAT5656    -0.4105
  16964  H1       -29.8860   25.5790   -1.7700 H    5656  WAT5656     0.2052
  16965  H2       -28.9470   26.7410   -2.0150 H    5656  WAT5656     0.2052
  16966  O        -26.3940   24.2640  -11.6560 O.3  5657  WAT5657    -0.4105
  16967  H1       -26.0010   24.5810  -12.4700 H    5657  WAT5657     0.2052
  16968  H2       -26.0330   23.3850  -11.5420 H    5657  WAT5657     0.2052
  16969  O        -28.0850   23.0150   -0.3970 O.3  5658  WAT5658    -0.4105
  16970  H1       -28.7750   22.8220    0.2380 H    5658  WAT5658     0.2052
  16971  H2       -27.3420   23.2980    0.1360 H    5658  WAT5658     0.2052
  16972  O        -25.8090   26.8550   -7.5610 O.3  5659  WAT5659    -0.4105
  16973  H1       -26.5410   27.3630   -7.2120 H    5659  WAT5659     0.2052
  16974  H2       -26.2060   26.0380   -7.8620 H    5659  WAT5659     0.2052
  16975  O        -29.3710   23.5300   -9.1560 O.3  5660  WAT5660    -0.4105
  16976  H1       -29.3670   23.0890  -10.0060 H    5660  WAT5660     0.2052
  16977  H2       -28.4760   23.8520   -9.0490 H    5660  WAT5660     0.2052
  16978  O        -29.3090   24.5310  -16.1650 O.3  5661  WAT5661    -0.4105
  16979  H1       -29.1880   24.4900  -15.2170 H    5661  WAT5661     0.2052
  16980  H2       -29.6940   25.3940  -16.3210 H    5661  WAT5661     0.2052
  16981  O        -25.3460   22.3080   -8.1490 O.3  5662  WAT5662    -0.4105
  16982  H1       -25.3290   22.7590   -7.3050 H    5662  WAT5662     0.2052
  16983  H2       -25.5950   21.4090   -7.9360 H    5662  WAT5662     0.2052
  16984  O        -21.9190   19.7210   -2.3100 O.3  5663  WAT5663    -0.4105
  16985  H1       -21.5950   18.9900   -1.7850 H    5663  WAT5663     0.2052
  16986  H2       -21.8840   19.4030   -3.2120 H    5663  WAT5663     0.2052
  16987  O        -29.0700   27.5900   -7.4100 O.3  5664  WAT5664    -0.4105
  16988  H1       -28.7030   27.1160   -6.6630 H    5664  WAT5664     0.2052
  16989  H2       -29.2600   28.4640   -7.0690 H    5664  WAT5664     0.2052
  16990  O        -26.5320   21.2270  -14.5590 O.3  5665  WAT5665    -0.4105
  16991  H1       -27.3460   20.7290  -14.6340 H    5665  WAT5665     0.2052
  16992  H2       -26.7260   22.0670  -14.9750 H    5665  WAT5665     0.2052
  16993  O        -23.8180   25.5990  -16.2630 O.3  5666  WAT5666    -0.4105
  16994  H1       -22.9300   25.9110  -16.4380 H    5666  WAT5666     0.2052
  16995  H2       -23.8470   24.7270  -16.6550 H    5666  WAT5666     0.2052
  16996  O        -21.5460   26.9110  -16.7950 O.3  5667  WAT5667    -0.4105
  16997  H1       -21.6300   27.3420  -17.6450 H    5667  WAT5667     0.2052
  16998  H2       -20.8270   27.3700  -16.3620 H    5667  WAT5667     0.2052
  16999  O        -29.5500   28.8580  -13.2000 O.3  5668  WAT5668    -0.4105
  17000  H1       -29.0930   29.6680  -12.9740 H    5668  WAT5668     0.2052
  17001  H2       -29.9010   28.5400  -12.3680 H    5668  WAT5668     0.2052
  17002  O        -25.1550   23.4530   -5.5170 O.3  5669  WAT5669    -0.4105
  17003  H1       -24.7870   22.6320   -5.1890 H    5669  WAT5669     0.2052
  17004  H2       -26.0150   23.5130   -5.1010 H    5669  WAT5669     0.2052
  17005  O        -21.7890   22.4090  -14.7080 O.3  5670  WAT5670    -0.4105
  17006  H1       -22.4180   22.5130  -15.4220 H    5670  WAT5670     0.2052
  17007  H2       -22.2840   22.6280  -13.9180 H    5670  WAT5670     0.2052
  17008  O        -28.1950   26.1070   -5.2930 O.3  5671  WAT5671    -0.4105
  17009  H1       -27.6970   26.5810   -4.6280 H    5671  WAT5671     0.2052
  17010  H2       -28.0530   25.1830   -5.0860 H    5671  WAT5671     0.2052
  17011  O        -25.7890   21.4120  -11.8530 O.3  5672  WAT5672    -0.4105
  17012  H1       -25.9120   21.4310  -12.8020 H    5672  WAT5672     0.2052
  17013  H2       -24.8410   21.4600  -11.7330 H    5672  WAT5672     0.2052
  17014  O        -20.9880   22.3240   -4.4500 O.3  5673  WAT5673    -0.4105
  17015  H1       -21.4910   23.0640   -4.1110 H    5673  WAT5673     0.2052
  17016  H2       -20.1730   22.7120   -4.7660 H    5673  WAT5673     0.2052
  17017  O        -22.6960   27.5670  -11.0040 O.3  5674  WAT5674    -0.4105
  17018  H1       -23.6370   27.5820  -10.8290 H    5674  WAT5674     0.2052
  17019  H2       -22.3820   26.7810  -10.5580 H    5674  WAT5674     0.2052
  17020  O        -28.1730   28.2690  -18.2210 O.3  5675  WAT5675    -0.4105
  17021  H1       -27.6530   27.5540  -18.5870 H    5675  WAT5675     0.2052
  17022  H2       -27.5260   28.9080  -17.9210 H    5675  WAT5675     0.2052
  17023  O        -23.6260   29.6920   -2.8980 O.3  5676  WAT5676    -0.4105
  17024  H1       -23.2110   29.8470   -2.0490 H    5676  WAT5676     0.2052
  17025  H2       -24.5600   29.8180   -2.7350 H    5676  WAT5676     0.2052
  17026  O        -23.1530   27.0320   -0.8940 O.3  5677  WAT5677    -0.4105
  17027  H1       -22.5710   26.2770   -0.9820 H    5677  WAT5677     0.2052
  17028  H2       -22.9770   27.5620   -1.6710 H    5677  WAT5677     0.2052
  17029  O        -29.2700   20.7490   -5.5500 O.3  5678  WAT5678    -0.4105
  17030  H1       -29.7180   20.7710   -6.3950 H    5678  WAT5678     0.2052
  17031  H2       -29.9030   20.3510   -4.9530 H    5678  WAT5678     0.2052
  17032  O        -26.5280   27.3760   -3.5450 O.3  5679  WAT5679    -0.4105
  17033  H1       -26.4080   26.7800   -2.8050 H    5679  WAT5679     0.2052
  17034  H2       -25.6680   27.4130   -3.9640 H    5679  WAT5679     0.2052
  17035  O        -24.1890   27.9290   -4.9680 O.3  5680  WAT5680    -0.4105
  17036  H1       -24.7150   28.4540   -5.5720 H    5680  WAT5680     0.2052
  17037  H2       -23.8460   28.5620   -4.3370 H    5680  WAT5680     0.2052
  17038  O        -24.9410   23.5340   -2.0540 O.3  5681  WAT5681    -0.4105
  17039  H1       -25.6300   22.8730   -2.1190 H    5681  WAT5681     0.2052
  17040  H2       -24.2210   23.0880   -1.6090 H    5681  WAT5681     0.2052
  17041  O        -24.3110   20.1300  -15.9950 O.3  5682  WAT5682    -0.4105
  17042  H1       -24.0310   19.2860  -15.6390 H    5682  WAT5682     0.2052
  17043  H2       -25.0850   20.3620  -15.4810 H    5682  WAT5682     0.2052
  17044  O        -23.4840   22.6850  -16.9320 O.3  5683  WAT5683    -0.4105
  17045  H1       -23.0650   22.4980  -17.7720 H    5683  WAT5683     0.2052
  17046  H2       -23.7900   21.8330  -16.6210 H    5683  WAT5683     0.2052
  17047  O        -19.9850   27.5980  -13.2340 O.3  5684  WAT5684    -0.4105
  17048  H1       -20.3600   26.8300  -13.6660 H    5684  WAT5684     0.2052
  17049  H2       -20.7150   27.9800  -12.7470 H    5684  WAT5684     0.2052
  17050  O        -20.5950   26.7450   -3.6000 O.3  5685  WAT5685    -0.4105
  17051  H1       -20.8260   26.5160   -4.5000 H    5685  WAT5685     0.2052
  17052  H2       -20.3340   27.6650   -3.6460 H    5685  WAT5685     0.2052
  17053  O        -22.1560   21.9700   -0.8220 O.3  5686  WAT5686    -0.4105
  17054  H1       -21.2790   21.9790   -0.4390 H    5686  WAT5686     0.2052
  17055  H2       -22.1440   21.2330   -1.4330 H    5686  WAT5686     0.2052
  17056  O        -20.7100   25.8230   -9.9330 O.3  5687  WAT5687    -0.4105
  17057  H1       -20.1860   25.3300  -10.5640 H    5687  WAT5687     0.2052
  17058  H2       -20.1240   25.9580   -9.1890 H    5687  WAT5687     0.2052
  17059  O        -20.5310   25.9070   -6.4110 O.3  5688  WAT5688    -0.4105
  17060  H1       -21.4810   25.8740   -6.2970 H    5688  WAT5688     0.2052
  17061  H2       -20.3490   26.8170   -6.6460 H    5688  WAT5688     0.2052
  17062  O        -21.2200   25.0810  -13.9940 O.3  5689  WAT5689    -0.4105
  17063  H1       -20.7240   24.8480  -13.2090 H    5689  WAT5689     0.2052
  17064  H2       -21.4180   24.2420  -14.4100 H    5689  WAT5689     0.2052
  17065  O        -19.7910   23.7170  -11.4600 O.3  5690  WAT5690    -0.4105
  17066  H1       -19.9010   23.5620  -10.5220 H    5690  WAT5690     0.2052
  17067  H2       -19.0300   23.1890  -11.7030 H    5690  WAT5690     0.2052
  17068  O        -21.4440   19.6560   -5.0020 O.3  5691  WAT5691    -0.4105
  17069  H1       -20.8070   20.2700   -4.6360 H    5691  WAT5691     0.2052
  17070  H2       -21.2970   19.6920   -5.9470 H    5691  WAT5691     0.2052
  17071  O        -18.9020   21.5480  -18.2200 O.3  5692  WAT5692    -0.4105
  17072  H1       -17.9770   21.4160  -18.4280 H    5692  WAT5692     0.2052
  17073  H2       -18.9240   21.6270  -17.2660 H    5692  WAT5692     0.2052
  17074  O        -18.8280   22.3190  -15.5940 O.3  5693  WAT5693    -0.4105
  17075  H1       -19.6230   22.2530  -15.0650 H    5693  WAT5693     0.2052
  17076  H2       -18.6240   23.2540  -15.6060 H    5693  WAT5693     0.2052
  17077  O        -28.0740   20.8090   -2.0950 O.3  5694  WAT5694    -0.4105
  17078  H1       -28.1350   21.4010   -1.3450 H    5694  WAT5694     0.2052
  17079  H2       -27.1340   20.7010   -2.2400 H    5694  WAT5694     0.2052
  17080  O        -25.4370   20.4660   -2.4550 O.3  5695  WAT5695    -0.4105
  17081  H1       -24.8230   20.7840   -3.1170 H    5695  WAT5695     0.2052
  17082  H2       -24.8920   19.9810   -1.8360 H    5695  WAT5695     0.2052
  17083  O        -24.6960   19.0290   -6.1280 O.3  5696  WAT5696    -0.4105
  17084  H1       -25.5700   19.3630   -6.3310 H    5696  WAT5696     0.2052
  17085  H2       -24.8050   18.5560   -5.3030 H    5696  WAT5696     0.2052
  17086  O        -23.7890   21.2360   -4.7440 O.3  5697  WAT5697    -0.4105
  17087  H1       -24.1170   20.4210   -5.1240 H    5697  WAT5697     0.2052
  17088  H2       -22.8400   21.1930   -4.8680 H    5697  WAT5697     0.2052
  17089  O        -26.9480   19.9460   -7.1890 O.3  5698  WAT5698    -0.4105
  17090  H1       -27.7310   20.4210   -6.9090 H    5698  WAT5698     0.2052
  17091  H2       -27.2420   19.0410   -7.2980 H    5698  WAT5698     0.2052
  17092  O        -22.3960   20.6480   -9.1440 O.3  5699  WAT5699    -0.4105
  17093  H1       -21.9550   20.5930   -9.9920 H    5699  WAT5699     0.2052
  17094  H2       -22.6650   21.5640   -9.0730 H    5699  WAT5699     0.2052
  17095  O        -20.5320   20.2800  -11.1330 O.3  5700  WAT5700    -0.4105
  17096  H1       -20.5930   19.3360  -11.2800 H    5700  WAT5700     0.2052
  17097  H2       -19.7530   20.3880  -10.5880 H    5700  WAT5700     0.2052
  17098  O        -29.0630   22.3650  -11.6780 O.3  5701  WAT5701    -0.4105
  17099  H1       -29.8750   21.9900  -12.0180 H    5701  WAT5701     0.2052
  17100  H2       -28.5590   21.6090  -11.3750 H    5701  WAT5701     0.2052
  17101  O        -24.5600   19.0290  -10.4390 O.3  5702  WAT5702    -0.4105
  17102  H1       -23.9570   19.6010   -9.9640 H    5702  WAT5702     0.2052
  17103  H2       -25.3010   19.5930  -10.6620 H    5702  WAT5702     0.2052
  17104  O        -21.4170   19.4310  -15.1650 O.3  5703  WAT5703    -0.4105
  17105  H1       -21.2220   20.3290  -14.8980 H    5703  WAT5703     0.2052
  17106  H2       -22.2040   19.2000  -14.6720 H    5703  WAT5703     0.2052
  17107  O        -24.3110   19.2080   -0.0600 O.3  5704  WAT5704    -0.4105
  17108  H1       -24.4240   19.5280    0.8350 H    5704  WAT5704     0.2052
  17109  H2       -23.4940   19.6100   -0.3560 H    5704  WAT5704     0.2052
  17110  O        -27.2730   29.0060  -27.8150 O.3  5705  WAT5705    -0.4105
  17111  H1       -28.0490   28.5260  -27.5250 H    5705  WAT5705     0.2052
  17112  H2       -26.6220   28.3260  -27.9900 H    5705  WAT5705     0.2052
  17113  O        -26.8020   24.4880  -27.5810 O.3  5706  WAT5706    -0.4105
  17114  H1       -26.4250   23.6150  -27.6940 H    5706  WAT5706     0.2052
  17115  H2       -26.9000   24.8240  -28.4720 H    5706  WAT5706     0.2052
  17116  O        -18.7290   24.0000  -24.0840 O.3  5707  WAT5707    -0.4105
  17117  H1       -19.4340   24.3880  -24.6030 H    5707  WAT5707     0.2052
  17118  H2       -18.4640   24.6950  -23.4820 H    5707  WAT5707     0.2052
  17119  O        -22.7830   23.9230  -27.8760 O.3  5708  WAT5708    -0.4105
  17120  H1       -23.4880   24.2120  -27.2960 H    5708  WAT5708     0.2052
  17121  H2       -22.4220   24.7330  -28.2360 H    5708  WAT5708     0.2052
  17122  O        -19.7150   23.3690  -27.4850 O.3  5709  WAT5709    -0.4105
  17123  H1       -20.6620   23.4030  -27.3530 H    5709  WAT5709     0.2052
  17124  H2       -19.3900   24.1830  -27.1000 H    5709  WAT5709     0.2052
  17125  O        -20.2860   28.6870  -25.4790 O.3  5710  WAT5710    -0.4105
  17126  H1       -21.1140   28.7560  -25.9540 H    5710  WAT5710     0.2052
  17127  H2       -19.6910   29.2720  -25.9470 H    5710  WAT5710     0.2052
  17128  O        -23.3220   25.4740  -24.5330 O.3  5711  WAT5711    -0.4105
  17129  H1       -23.7350   26.2990  -24.2790 H    5711  WAT5711     0.2052
  17130  H2       -24.0550   24.8880  -24.7260 H    5711  WAT5711     0.2052
  17131  O        -19.7960   24.5260  -20.6510 O.3  5712  WAT5712    -0.4105
  17132  H1       -20.4120   25.0340  -21.1790 H    5712  WAT5712     0.2052
  17133  H2       -20.1170   23.6250  -20.7080 H    5712  WAT5712     0.2052
  17134  O        -27.7350   23.3650  -23.1850 O.3  5713  WAT5713    -0.4105
  17135  H1       -28.1970   23.5730  -22.3730 H    5713  WAT5713     0.2052
  17136  H2       -28.1370   22.5510  -23.4880 H    5713  WAT5713     0.2052
  17137  O        -22.7350   24.5860  -22.0550 O.3  5714  WAT5714    -0.4105
  17138  H1       -23.5850   24.2860  -21.7340 H    5714  WAT5714     0.2052
  17139  H2       -22.8940   24.8300  -22.9670 H    5714  WAT5714     0.2052
  17140  O        -25.6400   26.0860  -19.9550 O.3  5715  WAT5715    -0.4105
  17141  H1       -25.3140   25.2520  -20.2950 H    5715  WAT5715     0.2052
  17142  H2       -24.8520   26.6090  -19.8070 H    5715  WAT5715     0.2052
  17143  O        -29.7910   26.5200  -20.3940 O.3  5716  WAT5716    -0.4105
  17144  H1       -29.8860   25.5790  -20.5440 H    5716  WAT5716     0.2052
  17145  H2       -28.9470   26.7410  -20.7890 H    5716  WAT5716     0.2052
  17146  O        -28.0850   23.0150  -19.1710 O.3  5717  WAT5717    -0.4105
  17147  H1       -28.7750   22.8220  -18.5360 H    5717  WAT5717     0.2052
  17148  H2       -27.3420   23.2980  -18.6390 H    5717  WAT5717     0.2052
  17149  O        -25.8090   26.8550  -26.3360 O.3  5718  WAT5718    -0.4105
  17150  H1       -26.5410   27.3630  -25.9870 H    5718  WAT5718     0.2052
  17151  H2       -26.2060   26.0380  -26.6370 H    5718  WAT5718     0.2052
  17152  O        -29.3710   23.5300  -27.9300 O.3  5719  WAT5719    -0.4105
  17153  H1       -29.3670   23.0890  -28.7800 H    5719  WAT5719     0.2052
  17154  H2       -28.4760   23.8520  -27.8230 H    5719  WAT5719     0.2052
  17155  O        -25.3460   22.3080  -26.9230 O.3  5720  WAT5720    -0.4105
  17156  H1       -25.3290   22.7590  -26.0790 H    5720  WAT5720     0.2052
  17157  H2       -25.5950   21.4090  -26.7100 H    5720  WAT5720     0.2052
  17158  O        -21.9190   19.7210  -21.0850 O.3  5721  WAT5721    -0.4105
  17159  H1       -21.5950   18.9900  -20.5590 H    5721  WAT5721     0.2052
  17160  H2       -21.8840   19.4030  -21.9870 H    5721  WAT5721     0.2052
  17161  O        -29.0700   27.5900  -26.1840 O.3  5722  WAT5722    -0.4105
  17162  H1       -28.7030   27.1160  -25.4380 H    5722  WAT5722     0.2052
  17163  H2       -29.2600   28.4640  -25.8430 H    5722  WAT5722     0.2052
  17164  O        -25.1550   23.4530  -24.2910 O.3  5723  WAT5723    -0.4105
  17165  H1       -24.7870   22.6320  -23.9630 H    5723  WAT5723     0.2052
  17166  H2       -26.0150   23.5130  -23.8750 H    5723  WAT5723     0.2052
  17167  O        -28.1950   26.1070  -24.0670 O.3  5724  WAT5724    -0.4105
  17168  H1       -27.6970   26.5810  -23.4020 H    5724  WAT5724     0.2052
  17169  H2       -28.0530   25.1830  -23.8600 H    5724  WAT5724     0.2052
  17170  O        -20.9880   22.3240  -23.2240 O.3  5725  WAT5725    -0.4105
  17171  H1       -21.4910   23.0640  -22.8850 H    5725  WAT5725     0.2052
  17172  H2       -20.1730   22.7120  -23.5410 H    5725  WAT5725     0.2052
  17173  O        -22.6960   27.5670  -29.7780 O.3  5726  WAT5726    -0.4105
  17174  H1       -23.6370   27.5820  -29.6030 H    5726  WAT5726     0.2052
  17175  H2       -22.3820   26.7810  -29.3320 H    5726  WAT5726     0.2052
  17176  O        -23.6260   29.6920  -21.6720 O.3  5727  WAT5727    -0.4105
  17177  H1       -23.2110   29.8470  -20.8230 H    5727  WAT5727     0.2052
  17178  H2       -24.5600   29.8180  -21.5100 H    5727  WAT5727     0.2052
  17179  O        -23.1530   27.0320  -19.6680 O.3  5728  WAT5728    -0.4105
  17180  H1       -22.5710   26.2770  -19.7560 H    5728  WAT5728     0.2052
  17181  H2       -22.9770   27.5620  -20.4450 H    5728  WAT5728     0.2052
  17182  O        -29.2700   20.7490  -24.3240 O.3  5729  WAT5729    -0.4105
  17183  H1       -29.7180   20.7710  -25.1690 H    5729  WAT5729     0.2052
  17184  H2       -29.9030   20.3510  -23.7270 H    5729  WAT5729     0.2052
  17185  O        -26.5280   27.3760  -22.3190 O.3  5730  WAT5730    -0.4105
  17186  H1       -26.4080   26.7800  -21.5790 H    5730  WAT5730     0.2052
  17187  H2       -25.6680   27.4130  -22.7390 H    5730  WAT5730     0.2052
  17188  O        -24.1890   27.9290  -23.7430 O.3  5731  WAT5731    -0.4105
  17189  H1       -24.7150   28.4540  -24.3460 H    5731  WAT5731     0.2052
  17190  H2       -23.8460   28.5620  -23.1120 H    5731  WAT5731     0.2052
  17191  O        -24.9410   23.5340  -20.8280 O.3  5732  WAT5732    -0.4105
  17192  H1       -25.6300   22.8730  -20.8930 H    5732  WAT5732     0.2052
  17193  H2       -24.2210   23.0880  -20.3830 H    5732  WAT5732     0.2052
  17194  O        -20.5950   26.7450  -22.3750 O.3  5733  WAT5733    -0.4105
  17195  H1       -20.8260   26.5160  -23.2750 H    5733  WAT5733     0.2052
  17196  H2       -20.3340   27.6650  -22.4200 H    5733  WAT5733     0.2052
  17197  O        -22.1560   21.9700  -19.5970 O.3  5734  WAT5734    -0.4105
  17198  H1       -21.2790   21.9790  -19.2130 H    5734  WAT5734     0.2052
  17199  H2       -22.1440   21.2330  -20.2070 H    5734  WAT5734     0.2052
  17200  O        -20.7100   25.8230  -28.7080 O.3  5735  WAT5735    -0.4105
  17201  H1       -20.1860   25.3300  -29.3390 H    5735  WAT5735     0.2052
  17202  H2       -20.1240   25.9580  -27.9630 H    5735  WAT5735     0.2052
  17203  O        -20.5310   25.9070  -25.1860 O.3  5736  WAT5736    -0.4105
  17204  H1       -21.4810   25.8740  -25.0710 H    5736  WAT5736     0.2052
  17205  H2       -20.3490   26.8170  -25.4210 H    5736  WAT5736     0.2052
  17206  O        -21.4440   19.6560  -23.7760 O.3  5737  WAT5737    -0.4105
  17207  H1       -20.8070   20.2700  -23.4110 H    5737  WAT5737     0.2052
  17208  H2       -21.2970   19.6920  -24.7220 H    5737  WAT5737     0.2052
  17209  O        -28.0740   20.8090  -20.8690 O.3  5738  WAT5738    -0.4105
  17210  H1       -28.1350   21.4010  -20.1190 H    5738  WAT5738     0.2052
  17211  H2       -27.1340   20.7010  -21.0140 H    5738  WAT5738     0.2052
  17212  O        -25.4370   20.4660  -21.2300 O.3  5739  WAT5739    -0.4105
  17213  H1       -24.8230   20.7840  -21.8920 H    5739  WAT5739     0.2052
  17214  H2       -24.8920   19.9810  -20.6100 H    5739  WAT5739     0.2052
  17215  O        -24.6960   19.0290  -24.9030 O.3  5740  WAT5740    -0.4105
  17216  H1       -25.5700   19.3630  -25.1050 H    5740  WAT5740     0.2052
  17217  H2       -24.8050   18.5560  -24.0780 H    5740  WAT5740     0.2052
  17218  O        -23.7890   21.2360  -23.5190 O.3  5741  WAT5741    -0.4105
  17219  H1       -24.1170   20.4210  -23.8980 H    5741  WAT5741     0.2052
  17220  H2       -22.8400   21.1930  -23.6420 H    5741  WAT5741     0.2052
  17221  O        -26.9480   19.9460  -25.9630 O.3  5742  WAT5742    -0.4105
  17222  H1       -27.7310   20.4210  -25.6840 H    5742  WAT5742     0.2052
  17223  H2       -27.2420   19.0410  -26.0720 H    5742  WAT5742     0.2052
  17224  O        -22.3960   20.6480  -27.9190 O.3  5743  WAT5743    -0.4105
  17225  H1       -21.9550   20.5930  -28.7660 H    5743  WAT5743     0.2052
  17226  H2       -22.6650   21.5640  -27.8480 H    5743  WAT5743     0.2052
  17227  O        -24.5600   19.0290  -29.2140 O.3  5744  WAT5744    -0.4105
  17228  H1       -23.9570   19.6010  -28.7390 H    5744  WAT5744     0.2052
  17229  H2       -25.3010   19.5930  -29.4360 H    5744  WAT5744     0.2052
  17230  O        -24.3110   19.2080  -18.8340 O.3  5745  WAT5745    -0.4105
  17231  H1       -24.4240   19.5280  -17.9390 H    5745  WAT5745     0.2052
  17232  H2       -23.4940   19.6100  -19.1300 H    5745  WAT5745     0.2052
  17233  O        -25.4050    8.4530   26.6270 O.3  5746  WAT5746    -0.4105
  17234  H1       -25.4860    7.5390   26.3560 H    5746  WAT5746     0.2052
  17235  H2       -25.8190    8.9500   25.9210 H    5746  WAT5746     0.2052
  17236  O        -27.2730   10.2310   28.5080 O.3  5747  WAT5747    -0.4105
  17237  H1       -28.0490    9.7510   28.7980 H    5747  WAT5747     0.2052
  17238  H2       -26.6220    9.5520   28.3330 H    5747  WAT5747     0.2052
  17239  O        -23.2520   14.6370   27.2880 O.3  5748  WAT5748    -0.4105
  17240  H1       -23.7140   13.8660   27.6160 H    5748  WAT5748     0.2052
  17241  H2       -22.4400   14.6640   27.7930 H    5748  WAT5748     0.2052
  17242  O        -27.0260   16.9230   26.9080 O.3  5749  WAT5749    -0.4105
  17243  H1       -27.6450   17.3790   26.3370 H    5749  WAT5749     0.2052
  17244  H2       -26.1710   17.0780   26.5070 H    5749  WAT5749     0.2052
  17245  O        -27.8320   12.9070   28.5150 O.3  5750  WAT5750    -0.4105
  17246  H1       -27.9010   11.9660   28.3540 H    5750  WAT5750     0.2052
  17247  H2       -27.0700   12.9970   29.0870 H    5750  WAT5750     0.2052
  17248  O        -26.8020    5.7140   28.7420 O.3  5751  WAT5751    -0.4105
  17249  H1       -26.4250    4.8410   28.6290 H    5751  WAT5751     0.2052
  17250  H2       -26.9000    6.0500   27.8510 H    5751  WAT5751     0.2052
  17251  O        -23.0190    3.2090   25.6740 O.3  5752  WAT5752    -0.4105
  17252  H1       -22.1980    2.7190   25.7170 H    5752  WAT5752     0.2052
  17253  H2       -22.9860    3.7990   26.4280 H    5752  WAT5752     0.2052
  17254  O        -26.1600   11.8070   24.3010 O.3  5753  WAT5753    -0.4105
  17255  H1       -26.7780   12.2720   23.7380 H    5753  WAT5753     0.2052
  17256  H2       -25.6470   12.5000   24.7180 H    5753  WAT5753     0.2052
  17257  O        -22.7830    5.1490   28.4470 O.3  5754  WAT5754    -0.4105
  17258  H1       -23.4880    5.4380   29.0280 H    5754  WAT5754     0.2052
  17259  H2       -22.4220    5.9590   28.0870 H    5754  WAT5754     0.2052
  17260  O        -19.7150    4.5950   28.8380 O.3  5755  WAT5755    -0.4105
  17261  H1       -20.6620    4.6280   28.9700 H    5755  WAT5755     0.2052
  17262  H2       -19.3900    5.4080   29.2230 H    5755  WAT5755     0.2052
  17263  O        -23.6310   16.6110   29.4240 O.3  5756  WAT5756    -0.4105
  17264  H1       -23.6180   16.2070   28.5570 H    5756  WAT5756     0.2052
  17265  H2       -24.1840   17.3860   29.3210 H    5756  WAT5756     0.2052
  17266  O        -22.3370   13.3330   24.5140 O.3  5757  WAT5757    -0.4105
  17267  H1       -22.4470   12.3900   24.6380 H    5757  WAT5757     0.2052
  17268  H2       -22.3400   13.6940   25.4000 H    5757  WAT5757     0.2052
  17269  O        -26.7950    8.9590   23.8700 O.3  5758  WAT5758    -0.4105
  17270  H1       -27.7220    8.8930   24.0990 H    5758  WAT5758     0.2052
  17271  H2       -26.6420    9.8970   23.7550 H    5758  WAT5758     0.2052
  17272  O        -26.8080    5.2310   20.8660 O.3  5759  WAT5759    -0.4105
  17273  H1       -27.7470    5.3920   20.9520 H    5759  WAT5759     0.2052
  17274  H2       -26.4890    5.9490   20.3200 H    5759  WAT5759     0.2052
  17275  O        -22.7650   10.5210   24.3730 O.3  5760  WAT5760    -0.4105
  17276  H1       -23.3840   10.1830   23.7260 H    5760  WAT5760     0.2052
  17277  H2       -22.7820    9.8770   25.0810 H    5760  WAT5760     0.2052
  17278  O        -24.5880    9.7600   21.3810 O.3  5761  WAT5761    -0.4105
  17279  H1       -24.1490    8.9220   21.2340 H    5761  WAT5761     0.2052
  17280  H2       -23.8750   10.3930   21.4670 H    5761  WAT5761     0.2052
  17281  O        -26.4790   14.6990   25.3490 O.3  5762  WAT5762    -0.4105
  17282  H1       -26.0390   15.4420   24.9340 H    5762  WAT5762     0.2052
  17283  H2       -26.5400   14.9420   26.2730 H    5762  WAT5762     0.2052
  17284  O        -21.0070    1.0140   19.6950 O.3  5763  WAT5763    -0.4105
  17285  H1       -21.3190    1.1070   20.5950 H    5763  WAT5763     0.2052
  17286  H2       -20.2450    1.5920   19.6440 H    5763  WAT5763     0.2052
  17287  O        -23.8120   17.6860   22.7050 O.3  5764  WAT5764    -0.4105
  17288  H1       -23.9720   17.3970   23.6030 H    5764  WAT5764     0.2052
  17289  H2       -23.9770   16.9100   22.1700 H    5764  WAT5764     0.2052
  17290  O        -24.1090   15.1950   21.2650 O.3  5765  WAT5765    -0.4105
  17291  H1       -24.8030   15.1930   20.6050 H    5765  WAT5765     0.2052
  17292  H2       -23.3670   14.7710   20.8340 H    5765  WAT5765     0.2052
  17293  O        -24.5440   16.8210   25.3400 O.3  5766  WAT5766    -0.4105
  17294  H1       -24.0880   16.0400   25.6530 H    5766  WAT5766     0.2052
  17295  H2       -24.2050   17.5320   25.8840 H    5766  WAT5766     0.2052
  17296  O        -28.9060    1.3450   22.4150 O.3  5767  WAT5767    -0.4105
  17297  H1       -29.5310    1.3410   23.1410 H    5767  WAT5767     0.2052
  17298  H2       -28.9930    0.4780   22.0190 H    5767  WAT5767     0.2052
  17299  O        -25.0010    6.8530   23.8620 O.3  5768  WAT5768    -0.4105
  17300  H1       -25.6000    7.5770   23.6780 H    5768  WAT5768     0.2052
  17301  H2       -24.4530    6.7910   23.0800 H    5768  WAT5768     0.2052
  17302  O        -26.3940    5.4900   25.8920 O.3  5769  WAT5769    -0.4105
  17303  H1       -26.0010    5.8070   25.0790 H    5769  WAT5769     0.2052
  17304  H2       -26.0330    4.6110   26.0070 H    5769  WAT5769     0.2052
  17305  O        -29.3710    4.7560   28.3930 O.3  5770  WAT5770    -0.4105
  17306  H1       -29.3670    4.3150   27.5430 H    5770  WAT5770     0.2052
  17307  H2       -28.4760    5.0770   28.5000 H    5770  WAT5770     0.2052
  17308  O        -29.3090    5.7570   21.3830 O.3  5771  WAT5771    -0.4105
  17309  H1       -29.1880    5.7160   22.3320 H    5771  WAT5771     0.2052
  17310  H2       -29.6940    6.6190   21.2280 H    5771  WAT5771     0.2052
  17311  O        -21.9930   11.0590   28.8470 O.3  5772  WAT5772    -0.4105
  17312  H1       -21.2730   11.5550   28.4570 H    5772  WAT5772     0.2052
  17313  H2       -22.1950   10.3810   28.2020 H    5772  WAT5772     0.2052
  17314  O        -26.5320    2.4530   22.9900 O.3  5773  WAT5773    -0.4105
  17315  H1       -27.3460    1.9540   22.9140 H    5773  WAT5773     0.2052
  17316  H2       -26.7260    3.2930   22.5730 H    5773  WAT5773     0.2052
  17317  O        -23.8180    6.8250   21.2860 O.3  5774  WAT5774    -0.4105
  17318  H1       -22.9300    7.1370   21.1110 H    5774  WAT5774     0.2052
  17319  H2       -23.8470    5.9520   20.8940 H    5774  WAT5774     0.2052
  17320  O        -27.8210   12.9970   21.9650 O.3  5775  WAT5775    -0.4105
  17321  H1       -27.4800   13.7420   21.4690 H    5775  WAT5775     0.2052
  17322  H2       -28.6500   13.3110   22.3270 H    5775  WAT5775     0.2052
  17323  O        -21.5460    8.1360   20.7540 O.3  5776  WAT5776    -0.4105
  17324  H1       -21.6300    8.5680   19.9040 H    5776  WAT5776     0.2052
  17325  H2       -20.8270    8.5960   21.1870 H    5776  WAT5776     0.2052
  17326  O        -20.5170   14.9900   23.4820 O.3  5777  WAT5777    -0.4105
  17327  H1       -21.1600   14.3360   23.7570 H    5777  WAT5777     0.2052
  17328  H2       -20.9040   15.3960   22.7060 H    5777  WAT5777     0.2052
  17329  O        -24.9390   12.3190   27.3290 O.3  5778  WAT5778    -0.4105
  17330  H1       -24.5860   11.7220   26.6700 H    5778  WAT5778     0.2052
  17331  H2       -25.8230   11.9930   27.5000 H    5778  WAT5778     0.2052
  17332  O        -28.8520   13.0790   24.7360 O.3  5779  WAT5779    -0.4105
  17333  H1       -28.1650   13.6260   25.1170 H    5779  WAT5779     0.2052
  17334  H2       -29.6390   13.6230   24.7710 H    5779  WAT5779     0.2052
  17335  O        -29.5500   10.0830   24.3490 O.3  5780  WAT5780    -0.4105
  17336  H1       -29.0930   10.8940   24.5750 H    5780  WAT5780     0.2052
  17337  H2       -29.9010    9.7660   25.1810 H    5780  WAT5780     0.2052
  17338  O        -22.1280   13.8820   20.0200 O.3  5781  WAT5781    -0.4105
  17339  H1       -22.3540   13.1650   20.6120 H    5781  WAT5781     0.2052
  17340  H2       -22.5180   13.6330   19.1820 H    5781  WAT5781     0.2052
  17341  O        -22.5460   11.7990   21.6810 O.3  5782  WAT5782    -0.4105
  17342  H1       -22.8340   12.2610   22.4690 H    5782  WAT5782     0.2052
  17343  H2       -21.7510   11.3390   21.9500 H    5782  WAT5782     0.2052
  17344  O        -21.7890    3.6340   22.8410 O.3  5783  WAT5783    -0.4105
  17345  H1       -22.4180    3.7390   22.1270 H    5783  WAT5783     0.2052
  17346  H2       -22.2840    3.8540   23.6300 H    5783  WAT5783     0.2052
  17347  O        -27.3430   15.3550   20.2740 O.3  5784  WAT5784    -0.4105
  17348  H1       -27.2420   15.1510   19.3440 H    5784  WAT5784     0.2052
  17349  H2       -28.2430   15.1010   20.4790 H    5784  WAT5784     0.2052
  17350  O        -25.7890    2.6380   25.6960 O.3  5785  WAT5785    -0.4105
  17351  H1       -25.9120    2.6560   24.7470 H    5785  WAT5785     0.2052
  17352  H2       -24.8410    2.6860   25.8160 H    5785  WAT5785     0.2052
  17353  O        -28.7010   17.8730   24.9690 O.3  5786  WAT5786    -0.4105
  17354  H1       -28.4470   17.8360   24.0470 H    5786  WAT5786     0.2052
  17355  H2       -29.6500   17.7470   24.9620 H    5786  WAT5786     0.2052
  17356  O        -22.6960    8.7930   26.5450 O.3  5787  WAT5787    -0.4105
  17357  H1       -23.6370    8.8080   26.7200 H    5787  WAT5787     0.2052
  17358  H2       -22.3820    8.0060   26.9910 H    5787  WAT5787     0.2052
  17359  O        -20.6940   15.9630   28.2200 O.3  5788  WAT5788    -0.4105
  17360  H1       -20.5690   16.7870   28.6930 H    5788  WAT5788     0.2052
  17361  H2       -19.8270   15.7530   27.8730 H    5788  WAT5788     0.2052
  17362  O        -21.0590   16.4570   21.1380 O.3  5789  WAT5789    -0.4105
  17363  H1       -21.3440   16.0430   20.3240 H    5789  WAT5789     0.2052
  17364  H2       -21.2570   17.3850   21.0180 H    5789  WAT5789     0.2052
  17365  O        -29.5940   12.4500   19.5790 O.3  5790  WAT5790    -0.4105
  17366  H1       -29.6990   11.8350   20.3050 H    5790  WAT5790     0.2052
  17367  H2       -29.7610   11.9270   18.7950 H    5790  WAT5790     0.2052
  17368  O        -26.3540   11.5120   20.1830 O.3  5791  WAT5791    -0.4105
  17369  H1       -26.9030   11.9590   20.8270 H    5791  WAT5791     0.2052
  17370  H2       -25.7320   11.0070   20.7070 H    5791  WAT5791     0.2052
  17371  O        -28.1730    9.4950   19.3270 O.3  5792  WAT5792    -0.4105
  17372  H1       -27.6530    8.7800   18.9610 H    5792  WAT5792     0.2052
  17373  H2       -27.5260   10.1330   19.6270 H    5792  WAT5792     0.2052
  17374  O        -24.3110    1.3550   21.5540 O.3  5793  WAT5793    -0.4105
  17375  H1       -24.0310    0.5120   21.9100 H    5793  WAT5793     0.2052
  17376  H2       -25.0850    1.5880   22.0680 H    5793  WAT5793     0.2052
  17377  O        -27.6090   17.5760   21.6170 O.3  5794  WAT5794    -0.4105
  17378  H1       -26.7130   17.9140   21.6390 H    5794  WAT5794     0.2052
  17379  H2       -27.5770   16.8540   20.9900 H    5794  WAT5794     0.2052
  17380  O        -19.3890   13.8480   19.6610 O.3  5795  WAT5795    -0.4105
  17381  H1       -20.2200   13.9160   20.1320 H    5795  WAT5795     0.2052
  17382  H2       -19.2120   14.7390   19.3580 H    5795  WAT5795     0.2052
  17383  O        -19.9330   10.5930   22.1640 O.3  5796  WAT5796    -0.4105
  17384  H1       -19.1710   11.1630   22.2700 H    5796  WAT5796     0.2052
  17385  H2       -19.9180   10.0260   22.9350 H    5796  WAT5796     0.2052
  17386  O        -18.9270   11.4480   27.0090 O.3  5797  WAT5797    -0.4105
  17387  H1       -18.5560   10.6650   26.6020 H    5797  WAT5797     0.2052
  17388  H2       -18.2870   12.1370   26.8300 H    5797  WAT5797     0.2052
  17389  O        -19.8810   10.8860   19.3220 O.3  5798  WAT5798    -0.4105
  17390  H1       -19.6060   11.7940   19.1940 H    5798  WAT5798     0.2052
  17391  H2       -20.0700   10.8230   20.2580 H    5798  WAT5798     0.2052
  17392  O        -23.4840    3.9110   20.6170 O.3  5799  WAT5799    -0.4105
  17393  H1       -23.0650    3.7240   19.7770 H    5799  WAT5799     0.2052
  17394  H2       -23.7900    3.0590   20.9270 H    5799  WAT5799     0.2052
  17395  O        -19.9850    8.8230   24.3150 O.3  5800  WAT5800    -0.4105
  17396  H1       -20.3600    8.0560   23.8830 H    5800  WAT5800     0.2052
  17397  H2       -20.7150    9.2050   24.8020 H    5800  WAT5800     0.2052
  17398  O        -20.7100    7.0490   27.6150 O.3  5801  WAT5801    -0.4105
  17399  H1       -20.1860    6.5550   26.9840 H    5801  WAT5801     0.2052
  17400  H2       -20.1240    7.1840   28.3600 H    5801  WAT5801     0.2052
  17401  O        -21.2200    6.3060   23.5550 O.3  5802  WAT5802    -0.4105
  17402  H1       -20.7240    6.0730   24.3390 H    5802  WAT5802     0.2052
  17403  H2       -21.4180    5.4670   23.1380 H    5802  WAT5802     0.2052
  17404  O        -19.7910    4.9420   26.0880 O.3  5803  WAT5803    -0.4105
  17405  H1       -19.9010    4.7880   27.0270 H    5803  WAT5803     0.2052
  17406  H2       -19.0300    4.4140   25.8460 H    5803  WAT5803     0.2052
  17407  O        -18.9020    2.7730   19.3290 O.3  5804  WAT5804    -0.4105
  17408  H1       -17.9770    2.6410   19.1210 H    5804  WAT5804     0.2052
  17409  H2       -18.9240    2.8520   20.2830 H    5804  WAT5804     0.2052
  17410  O        -18.8280    3.5440   21.9550 O.3  5805  WAT5805    -0.4105
  17411  H1       -19.6230    3.4790   22.4840 H    5805  WAT5805     0.2052
  17412  H2       -18.6240    4.4790   21.9430 H    5805  WAT5805     0.2052
  17413  O        -21.8860   17.5830   25.9480 O.3  5806  WAT5806    -0.4105
  17414  H1       -21.2900   17.2620   25.2720 H    5806  WAT5806     0.2052
  17415  H2       -21.6280   17.1110   26.7400 H    5806  WAT5806     0.2052
  17416  O        -21.3350   18.2330   29.7780 O.3  5807  WAT5807    -0.4105
  17417  H1       -21.7950   18.9850   29.4040 H    5807  WAT5807     0.2052
  17418  H2       -21.9640   17.5140   29.7200 H    5807  WAT5807     0.2052
  17419  O        -22.3960    1.8740   28.4040 O.3  5808  WAT5808    -0.4105
  17420  H1       -21.9550    1.8180   27.5570 H    5808  WAT5808     0.2052
  17421  H2       -22.6650    2.7900   28.4760 H    5808  WAT5808     0.2052
  17422  O        -20.5320    1.5050   26.4150 O.3  5809  WAT5809    -0.4105
  17423  H1       -20.5930    0.5620   26.2680 H    5809  WAT5809     0.2052
  17424  H2       -19.7530    1.6130   26.9610 H    5809  WAT5809     0.2052
  17425  O        -29.0630    3.5900   25.8710 O.3  5810  WAT5810    -0.4105
  17426  H1       -29.8750    3.2160   25.5310 H    5810  WAT5810     0.2052
  17427  H2       -28.5590    2.8350   26.1730 H    5810  WAT5810     0.2052
  17428  O        -24.5600    0.2550   27.1090 O.3  5811  WAT5811    -0.4105
  17429  H1       -23.9570    0.8270   27.5840 H    5811  WAT5811     0.2052
  17430  H2       -25.3010    0.8180   26.8870 H    5811  WAT5811     0.2052
  17431  O        -21.4170    0.6570   22.3840 O.3  5812  WAT5812    -0.4105
  17432  H1       -21.2220    1.5550   22.6500 H    5812  WAT5812     0.2052
  17433  H2       -22.2040    0.4250   22.8770 H    5812  WAT5812     0.2052
  17434  O        -19.8640   17.8970   24.1440 O.3  5813  WAT5813    -0.4105
  17435  H1       -19.6890   17.2110   23.5000 H    5813  WAT5813     0.2052
  17436  H2       -20.5620   18.4210   23.7520 H    5813  WAT5813     0.2052
  17437  O        -25.4050    8.4530    7.8520 O.3  5814  WAT5814    -0.4105
  17438  H1       -25.4860    7.5390    7.5820 H    5814  WAT5814     0.2052
  17439  H2       -25.8190    8.9500    7.1460 H    5814  WAT5814     0.2052
  17440  O        -27.2730   10.2310    9.7330 O.3  5815  WAT5815    -0.4105
  17441  H1       -28.0490    9.7510   10.0230 H    5815  WAT5815     0.2052
  17442  H2       -26.6220    9.5520    9.5590 H    5815  WAT5815     0.2052
  17443  O        -23.2520   14.6370    8.5130 O.3  5816  WAT5816    -0.4105
  17444  H1       -23.7140   13.8660    8.8420 H    5816  WAT5816     0.2052
  17445  H2       -22.4400   14.6640    9.0190 H    5816  WAT5816     0.2052
  17446  O        -27.0260   16.9230    8.1340 O.3  5817  WAT5817    -0.4105
  17447  H1       -27.6450   17.3790    7.5630 H    5817  WAT5817     0.2052
  17448  H2       -26.1710   17.0780    7.7330 H    5817  WAT5817     0.2052
  17449  O        -27.8320   12.9070    9.7400 O.3  5818  WAT5818    -0.4105
  17450  H1       -27.9010   11.9660    9.5790 H    5818  WAT5818     0.2052
  17451  H2       -27.0700   12.9970   10.3130 H    5818  WAT5818     0.2052
  17452  O        -26.8020    5.7140    9.9670 O.3  5819  WAT5819    -0.4105
  17453  H1       -26.4250    4.8410    9.8550 H    5819  WAT5819     0.2052
  17454  H2       -26.9000    6.0500    9.0760 H    5819  WAT5819     0.2052
  17455  O        -23.0190    3.2090    6.9000 O.3  5820  WAT5820    -0.4105
  17456  H1       -22.1980    2.7190    6.9430 H    5820  WAT5820     0.2052
  17457  H2       -22.9860    3.7990    7.6530 H    5820  WAT5820     0.2052
  17458  O        -18.7290    5.2260   13.4640 O.3  5821  WAT5821    -0.4105
  17459  H1       -19.4340    5.6140   12.9460 H    5821  WAT5821     0.2052
  17460  H2       -18.4640    5.9210   14.0670 H    5821  WAT5821     0.2052
  17461  O        -26.1600   11.8070    5.5270 O.3  5822  WAT5822    -0.4105
  17462  H1       -26.7780   12.2720    4.9630 H    5822  WAT5822     0.2052
  17463  H2       -25.6470   12.5000    5.9440 H    5822  WAT5822     0.2052
  17464  O        -22.7830    5.1490    9.6730 O.3  5823  WAT5823    -0.4105
  17465  H1       -23.4880    5.4380   10.2530 H    5823  WAT5823     0.2052
  17466  H2       -22.4220    5.9590    9.3130 H    5823  WAT5823     0.2052
  17467  O        -21.1670   14.7670   11.9360 O.3  5824  WAT5824    -0.4105
  17468  H1       -21.8510   15.4360   11.9270 H    5824  WAT5824     0.2052
  17469  H2       -20.6280   14.9650   11.1700 H    5824  WAT5824     0.2052
  17470  O        -19.7150    4.5950   10.0640 O.3  5825  WAT5825    -0.4105
  17471  H1       -20.6620    4.6280   10.1950 H    5825  WAT5825     0.2052
  17472  H2       -19.3900    5.4080   10.4490 H    5825  WAT5825     0.2052
  17473  O        -23.6310   16.6110   10.6500 O.3  5826  WAT5826    -0.4105
  17474  H1       -23.6180   16.2070    9.7820 H    5826  WAT5826     0.2052
  17475  H2       -24.1840   17.3860   10.5460 H    5826  WAT5826     0.2052
  17476  O        -22.3370   13.3330    5.7390 O.3  5827  WAT5827    -0.4105
  17477  H1       -22.4470   12.3900    5.8640 H    5827  WAT5827     0.2052
  17478  H2       -22.3400   13.6940    6.6250 H    5827  WAT5827     0.2052
  17479  O        -24.2330   11.5140   11.9780 O.3  5828  WAT5828    -0.4105
  17480  H1       -23.8160   11.3000   11.1440 H    5828  WAT5828     0.2052
  17481  H2       -23.5090   11.7710   12.5490 H    5828  WAT5828     0.2052
  17482  O        -26.7950    8.9590    5.0950 O.3  5829  WAT5829    -0.4105
  17483  H1       -27.7220    8.8930    5.3240 H    5829  WAT5829     0.2052
  17484  H2       -26.6420    9.8970    4.9810 H    5829  WAT5829     0.2052
  17485  O        -26.8080    5.2310    2.0920 O.3  5830  WAT5830    -0.4105
  17486  H1       -27.7470    5.3920    2.1770 H    5830  WAT5830     0.2052
  17487  H2       -26.4890    5.9490    1.5460 H    5830  WAT5830     0.2052
  17488  O        -20.2860    9.9130   12.0700 O.3  5831  WAT5831    -0.4105
  17489  H1       -21.1140    9.9820   11.5950 H    5831  WAT5831     0.2052
  17490  H2       -19.6910   10.4980   11.6020 H    5831  WAT5831     0.2052
  17491  O        -22.7650   10.5210    5.5990 O.3  5832  WAT5832    -0.4105
  17492  H1       -23.3840   10.1830    4.9520 H    5832  WAT5832     0.2052
  17493  H2       -22.7820    9.8770    6.3070 H    5832  WAT5832     0.2052
  17494  O        -23.3220    6.7000   13.0160 O.3  5833  WAT5833    -0.4105
  17495  H1       -23.7350    7.5250   13.2700 H    5833  WAT5833     0.2052
  17496  H2       -24.0550    6.1140   12.8230 H    5833  WAT5833     0.2052
  17497  O        -22.6320   16.7460   13.7040 O.3  5834  WAT5834    -0.4105
  17498  H1       -23.1090   17.5530   13.5110 H    5834  WAT5834     0.2052
  17499  H2       -23.3160   16.0930   13.8560 H    5834  WAT5834     0.2052
  17500  O        -24.5880    9.7600    2.6060 O.3  5835  WAT5835    -0.4105
  17501  H1       -24.1490    8.9220    2.4600 H    5835  WAT5835     0.2052
  17502  H2       -23.8750   10.3930    2.6930 H    5835  WAT5835     0.2052
  17503  O        -26.4790   14.6990    6.5740 O.3  5836  WAT5836    -0.4105
  17504  H1       -26.0390   15.4420    6.1600 H    5836  WAT5836     0.2052
  17505  H2       -26.5400   14.9420    7.4980 H    5836  WAT5836     0.2052
  17506  O        -21.0070    1.0140    0.9200 O.3  5837  WAT5837    -0.4105
  17507  H1       -21.3190    1.1070    1.8200 H    5837  WAT5837     0.2052
  17508  H2       -20.2450    1.5920    0.8700 H    5837  WAT5837     0.2052
  17509  O        -19.0520   16.5070   18.7730 O.3  5838  WAT5838    -0.4105
  17510  H1       -18.5760   16.9850   19.4520 H    5838  WAT5838     0.2052
  17511  H2       -18.4310   16.4380   18.0470 H    5838  WAT5838     0.2052
  17512  O        -19.6490   13.6980   15.9330 O.3  5839  WAT5839    -0.4105
  17513  H1       -19.5230   13.4590   15.0140 H    5839  WAT5839     0.2052
  17514  H2       -19.6070   12.8660   16.4050 H    5839  WAT5839     0.2052
  17515  O        -25.7870   17.4010   14.5020 O.3  5840  WAT5840    -0.4105
  17516  H1       -25.2730   17.3120   15.3040 H    5840  WAT5840     0.2052
  17517  H2       -26.6300   17.7470   14.7950 H    5840  WAT5840     0.2052
  17518  O        -23.8120   17.6860    3.9310 O.3  5841  WAT5841    -0.4105
  17519  H1       -23.9720   17.3970    4.8290 H    5841  WAT5841     0.2052
  17520  H2       -23.9770   16.9100    3.3950 H    5841  WAT5841     0.2052
  17521  O        -24.1090   15.1950    2.4900 O.3  5842  WAT5842    -0.4105
  17522  H1       -24.8030   15.1930    1.8310 H    5842  WAT5842     0.2052
  17523  H2       -23.3670   14.7710    2.0600 H    5842  WAT5842     0.2052
  17524  O        -24.5440   16.8210    6.5650 O.3  5843  WAT5843    -0.4105
  17525  H1       -24.0880   16.0400    6.8790 H    5843  WAT5843     0.2052
  17526  H2       -24.2050   17.5320    7.1090 H    5843  WAT5843     0.2052
  17527  O        -19.7960    5.7510   16.8980 O.3  5844  WAT5844    -0.4105
  17528  H1       -20.4120    6.2590   16.3690 H    5844  WAT5844     0.2052
  17529  H2       -20.1170    4.8510   16.8400 H    5844  WAT5844     0.2052
  17530  O        -27.7350    4.5900   14.3640 O.3  5845  WAT5845    -0.4105
  17531  H1       -28.1970    4.7990   15.1760 H    5845  WAT5845     0.2052
  17532  H2       -28.1370    3.7760   14.0610 H    5845  WAT5845     0.2052
  17533  O        -22.7350    5.8110   15.4940 O.3  5846  WAT5846    -0.4105
  17534  H1       -23.5850    5.5120   15.8150 H    5846  WAT5846     0.2052
  17535  H2       -22.8940    6.0560   14.5820 H    5846  WAT5846     0.2052
  17536  O        -25.6400    7.3120   17.5930 O.3  5847  WAT5847    -0.4105
  17537  H1       -25.3140    6.4780   17.2540 H    5847  WAT5847     0.2052
  17538  H2       -24.8520    7.8340   17.7410 H    5847  WAT5847     0.2052
  17539  O        -28.9060    1.3450    3.6410 O.3  5848  WAT5848    -0.4105
  17540  H1       -29.5310    1.3410    4.3660 H    5848  WAT5848     0.2052
  17541  H2       -28.9930    0.4780    3.2450 H    5848  WAT5848     0.2052
  17542  O        -25.0010    6.8530    5.0880 O.3  5849  WAT5849    -0.4105
  17543  H1       -25.6000    7.5770    4.9040 H    5849  WAT5849     0.2052
  17544  H2       -24.4530    6.7910    4.3050 H    5849  WAT5849     0.2052
  17545  O        -29.7910    7.7460   17.1550 O.3  5850  WAT5850    -0.4105
  17546  H1       -29.8860    6.8050   17.0050 H    5850  WAT5850     0.2052
  17547  H2       -28.9470    7.9670   16.7590 H    5850  WAT5850     0.2052
  17548  O        -26.3940    5.4900    7.1180 O.3  5851  WAT5851    -0.4105
  17549  H1       -26.0010    5.8070    6.3050 H    5851  WAT5851     0.2052
  17550  H2       -26.0330    4.6110    7.2320 H    5851  WAT5851     0.2052
  17551  O        -28.0850    4.2400   18.3780 O.3  5852  WAT5852    -0.4105
  17552  H1       -28.7750    4.0480   19.0120 H    5852  WAT5852     0.2052
  17553  H2       -27.3420    4.5240   18.9100 H    5852  WAT5852     0.2052
  17554  O        -25.8090    8.0800   11.2130 O.3  5853  WAT5853    -0.4105
  17555  H1       -26.5410    8.5890   11.5620 H    5853  WAT5853     0.2052
  17556  H2       -26.2060    7.2630   10.9120 H    5853  WAT5853     0.2052
  17557  O        -29.3710    4.7560    9.6180 O.3  5854  WAT5854    -0.4105
  17558  H1       -29.3670    4.3150    8.7690 H    5854  WAT5854     0.2052
  17559  H2       -28.4760    5.0770    9.7250 H    5854  WAT5854     0.2052
  17560  O        -29.3090    5.7570    2.6090 O.3  5855  WAT5855    -0.4105
  17561  H1       -29.1880    5.7160    3.5580 H    5855  WAT5855     0.2052
  17562  H2       -29.6940    6.6190    2.4540 H    5855  WAT5855     0.2052
  17563  O        -25.3460    3.5340   10.6250 O.3  5856  WAT5856    -0.4105
  17564  H1       -25.3290    3.9840   11.4690 H    5856  WAT5856     0.2052
  17565  H2       -25.5950    2.6340   10.8390 H    5856  WAT5856     0.2052
  17566  O        -21.9190    0.9470   16.4640 O.3  5857  WAT5857    -0.4105
  17567  H1       -21.5950    0.2160   16.9900 H    5857  WAT5857     0.2052
  17568  H2       -21.8840    0.6280   15.5620 H    5857  WAT5857     0.2052
  17569  O        -29.0700    8.8160   11.3650 O.3  5858  WAT5858    -0.4105
  17570  H1       -28.7030    8.3420   12.1110 H    5858  WAT5858     0.2052
  17571  H2       -29.2600    9.6900   11.7060 H    5858  WAT5858     0.2052
  17572  O        -21.9930   11.0590   10.0730 O.3  5859  WAT5859    -0.4105
  17573  H1       -21.2730   11.5550    9.6820 H    5859  WAT5859     0.2052
  17574  H2       -22.1950   10.3810    9.4280 H    5859  WAT5859     0.2052
  17575  O        -26.5320    2.4530    4.2150 O.3  5860  WAT5860    -0.4105
  17576  H1       -27.3460    1.9540    4.1400 H    5860  WAT5860     0.2052
  17577  H2       -26.7260    3.2930    3.7990 H    5860  WAT5860     0.2052
  17578  O        -26.6110   11.1300   15.9590 O.3  5861  WAT5861    -0.4105
  17579  H1       -26.6780   10.2100   15.7050 H    5861  WAT5861     0.2052
  17580  H2       -27.2410   11.2280   16.6740 H    5861  WAT5861     0.2052
  17581  O        -23.8180    6.8250    2.5120 O.3  5862  WAT5862    -0.4105
  17582  H1       -22.9300    7.1370    2.3370 H    5862  WAT5862     0.2052
  17583  H2       -23.8470    5.9520    2.1200 H    5862  WAT5862     0.2052
  17584  O        -27.8210   12.9970    3.1910 O.3  5863  WAT5863    -0.4105
  17585  H1       -27.4800   13.7420    2.6950 H    5863  WAT5863     0.2052
  17586  H2       -28.6500   13.3110    3.5530 H    5863  WAT5863     0.2052
  17587  O        -26.6800   13.9520   15.7100 O.3  5864  WAT5864    -0.4105
  17588  H1       -26.6650   13.0200   15.4920 H    5864  WAT5864     0.2052
  17589  H2       -27.3870   14.0380   16.3490 H    5864  WAT5864     0.2052
  17590  O        -21.5460    8.1360    1.9800 O.3  5865  WAT5865    -0.4105
  17591  H1       -21.6300    8.5680    1.1290 H    5865  WAT5865     0.2052
  17592  H2       -20.8270    8.5960    2.4120 H    5865  WAT5865     0.2052
  17593  O        -20.4690   10.5930   15.0570 O.3  5866  WAT5866    -0.4105
  17594  H1       -21.1940   11.1860   14.8600 H    5866  WAT5866     0.2052
  17595  H2       -19.9410   10.5850   14.2580 H    5866  WAT5866     0.2052
  17596  O        -20.5170   14.9900    4.7080 O.3  5867  WAT5867    -0.4105
  17597  H1       -21.1600   14.3360    4.9820 H    5867  WAT5867     0.2052
  17598  H2       -20.9040   15.3960    3.9320 H    5867  WAT5867     0.2052
  17599  O        -24.9390   12.3190    8.5550 O.3  5868  WAT5868    -0.4105
  17600  H1       -24.5860   11.7220    7.8950 H    5868  WAT5868     0.2052
  17601  H2       -25.8230   11.9930    8.7260 H    5868  WAT5868     0.2052
  17602  O        -28.8520   13.0790    5.9620 O.3  5869  WAT5869    -0.4105
  17603  H1       -28.1650   13.6260    6.3430 H    5869  WAT5869     0.2052
  17604  H2       -29.6390   13.6230    5.9970 H    5869  WAT5869     0.2052
  17605  O        -29.5500   10.0830    5.5750 O.3  5870  WAT5870    -0.4105
  17606  H1       -29.0930   10.8940    5.8010 H    5870  WAT5870     0.2052
  17607  H2       -29.9010    9.7660    6.4060 H    5870  WAT5870     0.2052
  17608  O        -27.2460   15.5940   12.8040 O.3  5871  WAT5871    -0.4105
  17609  H1       -26.6020   15.8000   13.4810 H    5871  WAT5871     0.2052
  17610  H2       -26.8830   14.8330   12.3510 H    5871  WAT5871     0.2052
  17611  O        -25.9730   13.5970   11.5220 O.3  5872  WAT5872    -0.4105
  17612  H1       -25.3310   12.8970   11.6350 H    5872  WAT5872     0.2052
  17613  H2       -25.4480   14.3770   11.3410 H    5872  WAT5872     0.2052
  17614  O        -22.1280   13.8820    1.2460 O.3  5873  WAT5873    -0.4105
  17615  H1       -22.3540   13.1650    1.8380 H    5873  WAT5873     0.2052
  17616  H2       -22.5180   13.6330    0.4080 H    5873  WAT5873     0.2052
  17617  O        -24.1990   14.3970   14.7250 O.3  5874  WAT5874    -0.4105
  17618  H1       -23.8640   14.9830   15.4030 H    5874  WAT5874     0.2052
  17619  H2       -25.1190   14.2660   14.9550 H    5874  WAT5874     0.2052
  17620  O        -22.5460   11.7990    2.9070 O.3  5875  WAT5875    -0.4105
  17621  H1       -22.8340   12.2610    3.6950 H    5875  WAT5875     0.2052
  17622  H2       -21.7510   11.3390    3.1750 H    5875  WAT5875     0.2052
  17623  O        -28.3710   14.4460   17.8940 O.3  5876  WAT5876    -0.4105
  17624  H1       -28.6910   13.7270   18.4390 H    5876  WAT5876     0.2052
  17625  H2       -29.0450   15.1210   17.9680 H    5876  WAT5876     0.2052
  17626  O        -25.1550    4.6790   13.2580 O.3  5877  WAT5877    -0.4105
  17627  H1       -24.7870    3.8580   13.5860 H    5877  WAT5877     0.2052
  17628  H2       -26.0150    4.7390   13.6730 H    5877  WAT5877     0.2052
  17629  O        -21.7890    3.6340    4.0660 O.3  5878  WAT5878    -0.4105
  17630  H1       -22.4180    3.7390    3.3520 H    5878  WAT5878     0.2052
  17631  H2       -22.2840    3.8540    4.8560 H    5878  WAT5878     0.2052
  17632  O        -27.3430   15.3550    1.5000 O.3  5879  WAT5879    -0.4105
  17633  H1       -27.2420   15.1510    0.5700 H    5879  WAT5879     0.2052
  17634  H2       -28.2430   15.1010    1.7050 H    5879  WAT5879     0.2052
  17635  O        -28.1950    7.3320   13.4820 O.3  5880  WAT5880    -0.4105
  17636  H1       -27.6970    7.8070   14.1470 H    5880  WAT5880     0.2052
  17637  H2       -28.0530    6.4090   13.6890 H    5880  WAT5880     0.2052
  17638  O        -25.7890    2.6380    6.9220 O.3  5881  WAT5881    -0.4105
  17639  H1       -25.9120    2.6560    5.9730 H    5881  WAT5881     0.2052
  17640  H2       -24.8410    2.6860    7.0420 H    5881  WAT5881     0.2052
  17641  O        -28.7010   17.8730    6.1950 O.3  5882  WAT5882    -0.4105
  17642  H1       -28.4470   17.8360    5.2730 H    5882  WAT5882     0.2052
  17643  H2       -29.6500   17.7470    6.1870 H    5882  WAT5882     0.2052
  17644  O        -20.9880    3.5490   14.3240 O.3  5883  WAT5883    -0.4105
  17645  H1       -21.4910    4.2900   14.6640 H    5883  WAT5883     0.2052
  17646  H2       -20.1730    3.9380   14.0080 H    5883  WAT5883     0.2052
  17647  O        -22.6960    8.7930    7.7700 O.3  5884  WAT5884    -0.4105
  17648  H1       -23.6370    8.8080    7.9450 H    5884  WAT5884     0.2052
  17649  H2       -22.3820    8.0060    8.2170 H    5884  WAT5884     0.2052
  17650  O        -20.6940   15.9630    9.4460 O.3  5885  WAT5885    -0.4105
  17651  H1       -20.5690   16.7870    9.9180 H    5885  WAT5885     0.2052
  17652  H2       -19.8270   15.7530    9.0980 H    5885  WAT5885     0.2052
  17653  O        -25.3800   13.3490   18.2540 O.3  5886  WAT5886    -0.4105
  17654  H1       -25.9860   13.3720   17.5130 H    5886  WAT5886     0.2052
  17655  H2       -25.6840   12.6170   18.7900 H    5886  WAT5886     0.2052
  17656  O        -23.9500   17.0770   16.8650 O.3  5887  WAT5887    -0.4105
  17657  H1       -22.9970   16.9930   16.8150 H    5887  WAT5887     0.2052
  17658  H2       -24.0970   17.7410   17.5380 H    5887  WAT5887     0.2052
  17659  O        -21.0590   16.4570    2.3640 O.3  5888  WAT5888    -0.4105
  17660  H1       -21.3440   16.0430    1.5490 H    5888  WAT5888     0.2052
  17661  H2       -21.2570   17.3850    2.2440 H    5888  WAT5888     0.2052
  17662  O        -29.5940   12.4500    0.8040 O.3  5889  WAT5889    -0.4105
  17663  H1       -29.6990   11.8350    1.5310 H    5889  WAT5889     0.2052
  17664  H2       -29.7610   11.9270    0.0210 H    5889  WAT5889     0.2052
  17665  O        -26.3540   11.5120    1.4090 O.3  5890  WAT5890    -0.4105
  17666  H1       -26.9030   11.9590    2.0530 H    5890  WAT5890     0.2052
  17667  H2       -25.7320   11.0070    1.9320 H    5890  WAT5890     0.2052
  17668  O        -22.3000   12.8660   17.3410 O.3  5891  WAT5891    -0.4105
  17669  H1       -21.5590   13.2040   16.8380 H    5891  WAT5891     0.2052
  17670  H2       -23.0630   13.0350   16.7880 H    5891  WAT5891     0.2052
  17671  O        -28.1730    9.4950    0.5530 O.3  5892  WAT5892    -0.4105
  17672  H1       -27.6530    8.7800    0.1870 H    5892  WAT5892     0.2052
  17673  H2       -27.5260   10.1330    0.8530 H    5892  WAT5892     0.2052
  17674  O        -23.6260   10.9180   15.8760 O.3  5893  WAT5893    -0.4105
  17675  H1       -23.2110   11.0720   16.7250 H    5893  WAT5893     0.2052
  17676  H2       -24.5600   11.0430   16.0390 H    5893  WAT5893     0.2052
  17677  O        -23.1530    8.2570   17.8800 O.3  5894  WAT5894    -0.4105
  17678  H1       -22.5710    7.5030   17.7920 H    5894  WAT5894     0.2052
  17679  H2       -22.9770    8.7880   17.1030 H    5894  WAT5894     0.2052
  17680  O        -29.2700    1.9740   13.2250 O.3  5895  WAT5895    -0.4105
  17681  H1       -29.7180    1.9970   12.3790 H    5895  WAT5895     0.2052
  17682  H2       -29.9030    1.5760   13.8220 H    5895  WAT5895     0.2052
  17683  O        -28.8640   10.8700   13.8460 O.3  5896  WAT5896    -0.4105
  17684  H1       -28.4450   11.7130   13.6740 H    5896  WAT5896     0.2052
  17685  H2       -29.7830   11.0070   13.6170 H    5896  WAT5896     0.2052
  17686  O        -26.5280    8.6010   15.2300 O.3  5897  WAT5897    -0.4105
  17687  H1       -26.4080    8.0050   15.9690 H    5897  WAT5897     0.2052
  17688  H2       -25.6680    8.6380   14.8100 H    5897  WAT5897     0.2052
  17689  O        -24.1890    9.1550   13.8060 O.3  5898  WAT5898    -0.4105
  17690  H1       -24.7150    9.6790   13.2030 H    5898  WAT5898     0.2052
  17691  H2       -23.8460    9.7880   14.4370 H    5898  WAT5898     0.2052
  17692  O        -24.9410    4.7600   16.7210 O.3  5899  WAT5899    -0.4105
  17693  H1       -25.6300    4.0980   16.6560 H    5899  WAT5899     0.2052
  17694  H2       -24.2210    4.3140   17.1650 H    5899  WAT5899     0.2052
  17695  O        -24.3110    1.3550    2.7800 O.3  5900  WAT5900    -0.4105
  17696  H1       -24.0310    0.5120    3.1360 H    5900  WAT5900     0.2052
  17697  H2       -25.0850    1.5880    3.2940 H    5900  WAT5900     0.2052
  17698  O        -28.1570   18.4100   15.2200 O.3  5901  WAT5901    -0.4105
  17699  H1       -28.2310   19.3140   15.5280 H    5901  WAT5901     0.2052
  17700  H2       -29.0590   18.0910   15.1930 H    5901  WAT5901     0.2052
  17701  O        -27.6090   17.5760    2.8430 O.3  5902  WAT5902    -0.4105
  17702  H1       -26.7130   17.9140    2.8650 H    5902  WAT5902     0.2052
  17703  H2       -27.5770   16.8540    2.2150 H    5902  WAT5902     0.2052
  17704  O        -20.6290   16.1060   15.5500 O.3  5903  WAT5903    -0.4105
  17705  H1       -21.2290   16.1660   14.8060 H    5903  WAT5903     0.2052
  17706  H2       -20.5000   15.1670   15.6790 H    5903  WAT5903     0.2052
  17707  O        -19.3890   13.8480    0.8870 O.3  5904  WAT5904    -0.4105
  17708  H1       -20.2200   13.9160    1.3570 H    5904  WAT5904     0.2052
  17709  H2       -19.2120   14.7390    0.5830 H    5904  WAT5904     0.2052
  17710  O        -19.9330   10.5930    3.3900 O.3  5905  WAT5905    -0.4105
  17711  H1       -19.1710   11.1630    3.4960 H    5905  WAT5905     0.2052
  17712  H2       -19.9180   10.0260    4.1610 H    5905  WAT5905     0.2052
  17713  O        -18.9270   11.4480    8.2340 O.3  5906  WAT5906    -0.4105
  17714  H1       -18.5560   10.6650    7.8280 H    5906  WAT5906     0.2052
  17715  H2       -18.2870   12.1370    8.0560 H    5906  WAT5906     0.2052
  17716  O        -21.9440   12.8320   13.6470 O.3  5907  WAT5907    -0.4105
  17717  H1       -22.7580   13.2610   13.9100 H    5907  WAT5907     0.2052
  17718  H2       -21.5360   13.4430   13.0340 H    5907  WAT5907     0.2052
  17719  O        -19.8810   10.8860    0.5470 O.3  5908  WAT5908    -0.4105
  17720  H1       -19.6060   11.7940    0.4190 H    5908  WAT5908     0.2052
  17721  H2       -20.0700   10.8230    1.4830 H    5908  WAT5908     0.2052
  17722  O        -23.4840    3.9110    1.8430 O.3  5909  WAT5909    -0.4105
  17723  H1       -23.0650    3.7240    1.0020 H    5909  WAT5909     0.2052
  17724  H2       -23.7900    3.0590    2.1530 H    5909  WAT5909     0.2052
  17725  O        -19.9850    8.8230    5.5400 O.3  5910  WAT5910    -0.4105
  17726  H1       -20.3600    8.0560    5.1080 H    5910  WAT5910     0.2052
  17727  H2       -20.7150    9.2050    6.0280 H    5910  WAT5910     0.2052
  17728  O        -20.5950    7.9700   15.1740 O.3  5911  WAT5911    -0.4105
  17729  H1       -20.8260    7.7420   14.2740 H    5911  WAT5911     0.2052
  17730  H2       -20.3340    8.8900   15.1290 H    5911  WAT5911     0.2052
  17731  O        -22.1560    3.1960   17.9520 O.3  5912  WAT5912    -0.4105
  17732  H1       -21.2790    3.2040   18.3360 H    5912  WAT5912     0.2052
  17733  H2       -22.1440    2.4590   17.3410 H    5912  WAT5912     0.2052
  17734  O        -20.7100    7.0490    8.8410 O.3  5913  WAT5913    -0.4105
  17735  H1       -20.1860    6.5550    8.2100 H    5913  WAT5913     0.2052
  17736  H2       -20.1240    7.1840    9.5860 H    5913  WAT5913     0.2052
  17737  O        -20.5310    7.1330   12.3630 O.3  5914  WAT5914    -0.4105
  17738  H1       -21.4810    7.0990   12.4770 H    5914  WAT5914     0.2052
  17739  H2       -20.3490    8.0430   12.1280 H    5914  WAT5914     0.2052
  17740  O        -21.2200    6.3060    4.7800 O.3  5915  WAT5915    -0.4105
  17741  H1       -20.7240    6.0730    5.5650 H    5915  WAT5915     0.2052
  17742  H2       -21.4180    5.4670    4.3640 H    5915  WAT5915     0.2052
  17743  O        -19.7910    4.9420    7.3140 O.3  5916  WAT5916    -0.4105
  17744  H1       -19.9010    4.7880    8.2520 H    5916  WAT5916     0.2052
  17745  H2       -19.0300    4.4140    7.0720 H    5916  WAT5916     0.2052
  17746  O        -21.4440    0.8820   13.7720 O.3  5917  WAT5917    -0.4105
  17747  H1       -20.8070    1.4950   14.1380 H    5917  WAT5917     0.2052
  17748  H2       -21.2970    0.9180   12.8270 H    5917  WAT5917     0.2052
  17749  O        -18.9020    2.7730    0.5550 O.3  5918  WAT5918    -0.4105
  17750  H1       -17.9770    2.6410    0.3460 H    5918  WAT5918     0.2052
  17751  H2       -18.9240    2.8520    1.5080 H    5918  WAT5918     0.2052
  17752  O        -18.8280    3.5440    3.1800 O.3  5919  WAT5919    -0.4105
  17753  H1       -19.6230    3.4790    3.7100 H    5919  WAT5919     0.2052
  17754  H2       -18.6240    4.4790    3.1690 H    5919  WAT5919     0.2052
  17755  O        -21.8860   17.5830    7.1740 O.3  5920  WAT5920    -0.4105
  17756  H1       -21.2900   17.2620    6.4980 H    5920  WAT5920     0.2052
  17757  H2       -21.6280   17.1110    7.9650 H    5920  WAT5920     0.2052
  17758  O        -28.0740    2.0340   16.6800 O.3  5921  WAT5921    -0.4105
  17759  H1       -28.1350    2.6270   17.4290 H    5921  WAT5921     0.2052
  17760  H2       -27.1340    1.9270   16.5350 H    5921  WAT5921     0.2052
  17761  O        -25.4370    1.6910   16.3190 O.3  5922  WAT5922    -0.4105
  17762  H1       -24.8230    2.0090   15.6570 H    5922  WAT5922     0.2052
  17763  H2       -24.8920    1.2060   16.9390 H    5922  WAT5922     0.2052
  17764  O        -19.0190   17.5910   13.7250 O.3  5923  WAT5923    -0.4105
  17765  H1       -19.5130   17.9870   13.0080 H    5923  WAT5923     0.2052
  17766  H2       -19.6280   16.9660   14.1190 H    5923  WAT5923     0.2052
  17767  O        -24.6960    0.2550   12.6460 O.3  5924  WAT5924    -0.4105
  17768  H1       -25.5700    0.5880   12.4430 H    5924  WAT5924     0.2052
  17769  H2       -24.8050   -0.2180   13.4710 H    5924  WAT5924     0.2052
  17770  O        -23.7890    2.4620   14.0300 O.3  5925  WAT5925    -0.4105
  17771  H1       -24.1170    1.6470   13.6500 H    5925  WAT5925     0.2052
  17772  H2       -22.8400    2.4190   13.9070 H    5925  WAT5925     0.2052
  17773  O        -21.3350   18.2330   11.0040 O.3  5926  WAT5926    -0.4105
  17774  H1       -21.7950   18.9850   10.6300 H    5926  WAT5926     0.2052
  17775  H2       -21.9640   17.5140   10.9450 H    5926  WAT5926     0.2052
  17776  O        -28.1660   17.4330   11.0060 O.3  5927  WAT5927    -0.4105
  17777  H1       -27.8780   17.1780   10.1290 H    5927  WAT5927     0.2052
  17778  H2       -27.6540   16.8800   11.5960 H    5927  WAT5927     0.2052
  17779  O        -26.9480    1.1720   11.5850 O.3  5928  WAT5928    -0.4105
  17780  H1       -27.7310    1.6460   11.8650 H    5928  WAT5928     0.2052
  17781  H2       -27.2420    0.2670   11.4770 H    5928  WAT5928     0.2052
  17782  O        -22.3960    1.8740    9.6300 O.3  5929  WAT5929    -0.4105
  17783  H1       -21.9550    1.8180    8.7820 H    5929  WAT5929     0.2052
  17784  H2       -22.6650    2.7900    9.7010 H    5929  WAT5929     0.2052
  17785  O        -20.5320    1.5050    7.6410 O.3  5930  WAT5930    -0.4105
  17786  H1       -20.5930    0.5620    7.4940 H    5930  WAT5930     0.2052
  17787  H2       -19.7530    1.6130    8.1860 H    5930  WAT5930     0.2052
  17788  O        -29.0630    3.5900    7.0970 O.3  5931  WAT5931    -0.4105
  17789  H1       -29.8750    3.2160    6.7560 H    5931  WAT5931     0.2052
  17790  H2       -28.5590    2.8350    7.3990 H    5931  WAT5931     0.2052
  17791  O        -24.5600    0.2550    8.3350 O.3  5932  WAT5932    -0.4105
  17792  H1       -23.9570    0.8270    8.8100 H    5932  WAT5932     0.2052
  17793  H2       -25.3010    0.8180    8.1130 H    5932  WAT5932     0.2052
  17794  O        -21.4170    0.6570    3.6090 O.3  5933  WAT5933    -0.4105
  17795  H1       -21.2220    1.5550    3.8760 H    5933  WAT5933     0.2052
  17796  H2       -22.2040    0.4250    4.1020 H    5933  WAT5933     0.2052
  17797  O        -28.0990   18.3540   18.3720 O.3  5934  WAT5934    -0.4105
  17798  H1       -27.1720   18.1190   18.4160 H    5934  WAT5934     0.2052
  17799  H2       -28.1140   19.1810   17.8910 H    5934  WAT5934     0.2052
  17800  O        -19.8640   17.8970    5.3700 O.3  5935  WAT5935    -0.4105
  17801  H1       -19.6890   17.2110    4.7260 H    5935  WAT5935     0.2052
  17802  H2       -20.5620   18.4210    4.9770 H    5935  WAT5935     0.2052
  17803  O        -24.3110    0.4340   18.7150 O.3  5936  WAT5936    -0.4105
  17804  H1       -24.4240    0.7540   19.6100 H    5936  WAT5936     0.2052
  17805  H2       -23.4940    0.8350   18.4180 H    5936  WAT5936     0.2052
  17806  O        -21.5310   17.5810   18.1960 O.3  5937  WAT5937    -0.4105
  17807  H1       -20.7380   17.0860   17.9890 H    5937  WAT5937     0.2052
  17808  H2       -21.2380   18.2600   18.8040 H    5937  WAT5937     0.2052
  17809  O        -25.4050    8.4530  -10.9220 O.3  5938  WAT5938    -0.4105
  17810  H1       -25.4860    7.5390  -11.1930 H    5938  WAT5938     0.2052
  17811  H2       -25.8190    8.9500  -11.6280 H    5938  WAT5938     0.2052
  17812  O        -27.2730   10.2310   -9.0410 O.3  5939  WAT5939    -0.4105
  17813  H1       -28.0490    9.7510   -8.7510 H    5939  WAT5939     0.2052
  17814  H2       -26.6220    9.5520   -9.2150 H    5939  WAT5939     0.2052
  17815  O        -23.2520   14.6370  -10.2610 O.3  5940  WAT5940    -0.4105
  17816  H1       -23.7140   13.8660   -9.9320 H    5940  WAT5940     0.2052
  17817  H2       -22.4400   14.6640   -9.7560 H    5940  WAT5940     0.2052
  17818  O        -27.0260   16.9230  -10.6410 O.3  5941  WAT5941    -0.4105
  17819  H1       -27.6450   17.3790  -11.2110 H    5941  WAT5941     0.2052
  17820  H2       -26.1710   17.0780  -11.0420 H    5941  WAT5941     0.2052
  17821  O        -27.8320   12.9070   -9.0340 O.3  5942  WAT5942    -0.4105
  17822  H1       -27.9010   11.9660   -9.1950 H    5942  WAT5942     0.2052
  17823  H2       -27.0700   12.9970   -8.4620 H    5942  WAT5942     0.2052
  17824  O        -26.8020    5.7140   -8.8070 O.3  5943  WAT5943    -0.4105
  17825  H1       -26.4250    4.8410   -8.9200 H    5943  WAT5943     0.2052
  17826  H2       -26.9000    6.0500   -9.6980 H    5943  WAT5943     0.2052
  17827  O        -23.0190    3.2090  -11.8740 O.3  5944  WAT5944    -0.4105
  17828  H1       -22.1980    2.7190  -11.8320 H    5944  WAT5944     0.2052
  17829  H2       -22.9860    3.7990  -11.1210 H    5944  WAT5944     0.2052
  17830  O        -18.7290    5.2260   -5.3100 O.3  5945  WAT5945    -0.4105
  17831  H1       -19.4340    5.6140   -5.8280 H    5945  WAT5945     0.2052
  17832  H2       -18.4640    5.9210   -4.7080 H    5945  WAT5945     0.2052
  17833  O        -26.1600   11.8070  -13.2470 O.3  5946  WAT5946    -0.4105
  17834  H1       -26.7780   12.2720  -13.8110 H    5946  WAT5946     0.2052
  17835  H2       -25.6470   12.5000  -12.8310 H    5946  WAT5946     0.2052
  17836  O        -22.7830    5.1490   -9.1010 O.3  5947  WAT5947    -0.4105
  17837  H1       -23.4880    5.4380   -8.5210 H    5947  WAT5947     0.2052
  17838  H2       -22.4220    5.9590   -9.4620 H    5947  WAT5947     0.2052
  17839  O        -21.1670   14.7670   -6.8390 O.3  5948  WAT5948    -0.4105
  17840  H1       -21.8510   15.4360   -6.8470 H    5948  WAT5948     0.2052
  17841  H2       -20.6280   14.9650   -7.6040 H    5948  WAT5948     0.2052
  17842  O        -19.7150    4.5950   -8.7110 O.3  5949  WAT5949    -0.4105
  17843  H1       -20.6620    4.6280   -8.5790 H    5949  WAT5949     0.2052
  17844  H2       -19.3900    5.4080   -8.3260 H    5949  WAT5949     0.2052
  17845  O        -23.6310   16.6110   -8.1240 O.3  5950  WAT5950    -0.4105
  17846  H1       -23.6180   16.2070   -8.9920 H    5950  WAT5950     0.2052
  17847  H2       -24.1840   17.3860   -8.2280 H    5950  WAT5950     0.2052
  17848  O        -22.3370   13.3330  -13.0350 O.3  5951  WAT5951    -0.4105
  17849  H1       -22.4470   12.3900  -12.9100 H    5951  WAT5951     0.2052
  17850  H2       -22.3400   13.6940  -12.1490 H    5951  WAT5951     0.2052
  17851  O        -24.2330   11.5140   -6.7960 O.3  5952  WAT5952    -0.4105
  17852  H1       -23.8160   11.3000   -7.6310 H    5952  WAT5952     0.2052
  17853  H2       -23.5090   11.7710   -6.2250 H    5952  WAT5952     0.2052
  17854  O        -26.7950    8.9590  -13.6790 O.3  5953  WAT5953    -0.4105
  17855  H1       -27.7220    8.8930  -13.4500 H    5953  WAT5953     0.2052
  17856  H2       -26.6420    9.8970  -13.7930 H    5953  WAT5953     0.2052
  17857  O        -26.8080    5.2310  -16.6820 O.3  5954  WAT5954    -0.4105
  17858  H1       -27.7470    5.3920  -16.5970 H    5954  WAT5954     0.2052
  17859  H2       -26.4890    5.9490  -17.2290 H    5954  WAT5954     0.2052
  17860  O        -20.2860    9.9130   -6.7040 O.3  5955  WAT5955    -0.4105
  17861  H1       -21.1140    9.9820   -7.1790 H    5955  WAT5955     0.2052
  17862  H2       -19.6910   10.4980   -7.1730 H    5955  WAT5955     0.2052
  17863  O        -22.7650   10.5210  -13.1750 O.3  5956  WAT5956    -0.4105
  17864  H1       -23.3840   10.1830  -13.8230 H    5956  WAT5956     0.2052
  17865  H2       -22.7820    9.8770  -12.4670 H    5956  WAT5956     0.2052
  17866  O        -23.3220    6.7000   -5.7590 O.3  5957  WAT5957    -0.4105
  17867  H1       -23.7350    7.5250   -5.5050 H    5957  WAT5957     0.2052
  17868  H2       -24.0550    6.1140   -5.9510 H    5957  WAT5957     0.2052
  17869  O        -22.6320   16.7460   -5.0710 O.3  5958  WAT5958    -0.4105
  17870  H1       -23.1090   17.5530   -5.2630 H    5958  WAT5958     0.2052
  17871  H2       -23.3160   16.0930   -4.9180 H    5958  WAT5958     0.2052
  17872  O        -24.5880    9.7600  -16.1680 O.3  5959  WAT5959    -0.4105
  17873  H1       -24.1490    8.9220  -16.3140 H    5959  WAT5959     0.2052
  17874  H2       -23.8750   10.3930  -16.0820 H    5959  WAT5959     0.2052
  17875  O        -26.4790   14.6990  -12.2000 O.3  5960  WAT5960    -0.4105
  17876  H1       -26.0390   15.4420  -12.6140 H    5960  WAT5960     0.2052
  17877  H2       -26.5400   14.9420  -11.2760 H    5960  WAT5960     0.2052
  17878  O        -21.0070    1.0140  -17.8540 O.3  5961  WAT5961    -0.4105
  17879  H1       -21.3190    1.1070  -16.9540 H    5961  WAT5961     0.2052
  17880  H2       -20.2450    1.5920  -17.9040 H    5961  WAT5961     0.2052
  17881  O        -19.0520   16.5070   -0.0020 O.3  5962  WAT5962    -0.4105
  17882  H1       -18.5760   16.9850    0.6770 H    5962  WAT5962     0.2052
  17883  H2       -18.4310   16.4380   -0.7270 H    5962  WAT5962     0.2052
  17884  O        -19.6490   13.6980   -2.8420 O.3  5963  WAT5963    -0.4105
  17885  H1       -19.5230   13.4590   -3.7600 H    5963  WAT5963     0.2052
  17886  H2       -19.6070   12.8660   -2.3690 H    5963  WAT5963     0.2052
  17887  O        -25.7870   17.4010   -4.2720 O.3  5964  WAT5964    -0.4105
  17888  H1       -25.2730   17.3120   -3.4700 H    5964  WAT5964     0.2052
  17889  H2       -26.6300   17.7470   -3.9790 H    5964  WAT5964     0.2052
  17890  O        -23.8120   17.6860  -14.8440 O.3  5965  WAT5965    -0.4105
  17891  H1       -23.9720   17.3970  -13.9460 H    5965  WAT5965     0.2052
  17892  H2       -23.9770   16.9100  -15.3790 H    5965  WAT5965     0.2052
  17893  O        -24.1090   15.1950  -16.2840 O.3  5966  WAT5966    -0.4105
  17894  H1       -24.8030   15.1930  -16.9440 H    5966  WAT5966     0.2052
  17895  H2       -23.3670   14.7710  -16.7140 H    5966  WAT5966     0.2052
  17896  O        -24.5440   16.8210  -12.2090 O.3  5967  WAT5967    -0.4105
  17897  H1       -24.0880   16.0400  -11.8950 H    5967  WAT5967     0.2052
  17898  H2       -24.2050   17.5320  -11.6650 H    5967  WAT5967     0.2052
  17899  O        -19.7960    5.7510   -1.8770 O.3  5968  WAT5968    -0.4105
  17900  H1       -20.4120    6.2590   -2.4050 H    5968  WAT5968     0.2052
  17901  H2       -20.1170    4.8510   -1.9340 H    5968  WAT5968     0.2052
  17902  O        -27.7350    4.5900   -4.4100 O.3  5969  WAT5969    -0.4105
  17903  H1       -28.1970    4.7990   -3.5980 H    5969  WAT5969     0.2052
  17904  H2       -28.1370    3.7760   -4.7130 H    5969  WAT5969     0.2052
  17905  O        -22.7350    5.8110   -3.2810 O.3  5970  WAT5970    -0.4105
  17906  H1       -23.5850    5.5120   -2.9600 H    5970  WAT5970     0.2052
  17907  H2       -22.8940    6.0560   -4.1920 H    5970  WAT5970     0.2052
  17908  O        -25.6400    7.3120   -1.1810 O.3  5971  WAT5971    -0.4105
  17909  H1       -25.3140    6.4780   -1.5210 H    5971  WAT5971     0.2052
  17910  H2       -24.8520    7.8340   -1.0330 H    5971  WAT5971     0.2052
  17911  O        -28.9060    1.3450  -15.1330 O.3  5972  WAT5972    -0.4105
  17912  H1       -29.5310    1.3410  -14.4080 H    5972  WAT5972     0.2052
  17913  H2       -28.9930    0.4780  -15.5300 H    5972  WAT5972     0.2052
  17914  O        -25.0010    6.8530  -13.6870 O.3  5973  WAT5973    -0.4105
  17915  H1       -25.6000    7.5770  -13.8700 H    5973  WAT5973     0.2052
  17916  H2       -24.4530    6.7910  -14.4690 H    5973  WAT5973     0.2052
  17917  O        -29.7910    7.7460   -1.6200 O.3  5974  WAT5974    -0.4105
  17918  H1       -29.8860    6.8050   -1.7700 H    5974  WAT5974     0.2052
  17919  H2       -28.9470    7.9670   -2.0150 H    5974  WAT5974     0.2052
  17920  O        -26.3940    5.4900  -11.6560 O.3  5975  WAT5975    -0.4105
  17921  H1       -26.0010    5.8070  -12.4700 H    5975  WAT5975     0.2052
  17922  H2       -26.0330    4.6110  -11.5420 H    5975  WAT5975     0.2052
  17923  O        -28.0850    4.2400   -0.3970 O.3  5976  WAT5976    -0.4105
  17924  H1       -28.7750    4.0480    0.2380 H    5976  WAT5976     0.2052
  17925  H2       -27.3420    4.5240    0.1360 H    5976  WAT5976     0.2052
  17926  O        -25.8090    8.0800   -7.5610 O.3  5977  WAT5977    -0.4105
  17927  H1       -26.5410    8.5890   -7.2120 H    5977  WAT5977     0.2052
  17928  H2       -26.2060    7.2630   -7.8620 H    5977  WAT5977     0.2052
  17929  O        -29.3710    4.7560   -9.1560 O.3  5978  WAT5978    -0.4105
  17930  H1       -29.3670    4.3150  -10.0060 H    5978  WAT5978     0.2052
  17931  H2       -28.4760    5.0770   -9.0490 H    5978  WAT5978     0.2052
  17932  O        -29.3090    5.7570  -16.1650 O.3  5979  WAT5979    -0.4105
  17933  H1       -29.1880    5.7160  -15.2170 H    5979  WAT5979     0.2052
  17934  H2       -29.6940    6.6190  -16.3210 H    5979  WAT5979     0.2052
  17935  O        -25.3460    3.5340   -8.1490 O.3  5980  WAT5980    -0.4105
  17936  H1       -25.3290    3.9840   -7.3050 H    5980  WAT5980     0.2052
  17937  H2       -25.5950    2.6340   -7.9360 H    5980  WAT5980     0.2052
  17938  O        -21.9190    0.9470   -2.3100 O.3  5981  WAT5981    -0.4105
  17939  H1       -21.5950    0.2160   -1.7850 H    5981  WAT5981     0.2052
  17940  H2       -21.8840    0.6280   -3.2120 H    5981  WAT5981     0.2052
  17941  O        -29.0700    8.8160   -7.4100 O.3  5982  WAT5982    -0.4105
  17942  H1       -28.7030    8.3420   -6.6630 H    5982  WAT5982     0.2052
  17943  H2       -29.2600    9.6900   -7.0690 H    5982  WAT5982     0.2052
  17944  O        -21.9930   11.0590   -8.7020 O.3  5983  WAT5983    -0.4105
  17945  H1       -21.2730   11.5550   -9.0920 H    5983  WAT5983     0.2052
  17946  H2       -22.1950   10.3810   -9.3460 H    5983  WAT5983     0.2052
  17947  O        -26.5320    2.4530  -14.5590 O.3  5984  WAT5984    -0.4105
  17948  H1       -27.3460    1.9540  -14.6340 H    5984  WAT5984     0.2052
  17949  H2       -26.7260    3.2930  -14.9750 H    5984  WAT5984     0.2052
  17950  O        -26.6110   11.1300   -2.8150 O.3  5985  WAT5985    -0.4105
  17951  H1       -26.6780   10.2100   -3.0690 H    5985  WAT5985     0.2052
  17952  H2       -27.2410   11.2280   -2.1000 H    5985  WAT5985     0.2052
  17953  O        -23.8180    6.8250  -16.2630 O.3  5986  WAT5986    -0.4105
  17954  H1       -22.9300    7.1370  -16.4380 H    5986  WAT5986     0.2052
  17955  H2       -23.8470    5.9520  -16.6550 H    5986  WAT5986     0.2052
  17956  O        -27.8210   12.9970  -15.5840 O.3  5987  WAT5987    -0.4105
  17957  H1       -27.4800   13.7420  -16.0790 H    5987  WAT5987     0.2052
  17958  H2       -28.6500   13.3110  -15.2210 H    5987  WAT5987     0.2052
  17959  O        -26.6800   13.9520   -3.0650 O.3  5988  WAT5988    -0.4105
  17960  H1       -26.6650   13.0200   -3.2830 H    5988  WAT5988     0.2052
  17961  H2       -27.3870   14.0380   -2.4260 H    5988  WAT5988     0.2052
  17962  O        -21.5460    8.1360  -16.7950 O.3  5989  WAT5989    -0.4105
  17963  H1       -21.6300    8.5680  -17.6450 H    5989  WAT5989     0.2052
  17964  H2       -20.8270    8.5960  -16.3620 H    5989  WAT5989     0.2052
  17965  O        -20.4690   10.5930   -3.7180 O.3  5990  WAT5990    -0.4105
  17966  H1       -21.1940   11.1860   -3.9150 H    5990  WAT5990     0.2052
  17967  H2       -19.9410   10.5850   -4.5160 H    5990  WAT5990     0.2052
  17968  O        -20.5170   14.9900  -14.0660 O.3  5991  WAT5991    -0.4105
  17969  H1       -21.1600   14.3360  -13.7920 H    5991  WAT5991     0.2052
  17970  H2       -20.9040   15.3960  -14.8420 H    5991  WAT5991     0.2052
  17971  O        -24.9390   12.3190  -10.2190 O.3  5992  WAT5992    -0.4105
  17972  H1       -24.5860   11.7220  -10.8790 H    5992  WAT5992     0.2052
  17973  H2       -25.8230   11.9930  -10.0480 H    5992  WAT5992     0.2052
  17974  O        -28.8520   13.0790  -12.8120 O.3  5993  WAT5993    -0.4105
  17975  H1       -28.1650   13.6260  -12.4310 H    5993  WAT5993     0.2052
  17976  H2       -29.6390   13.6230  -12.7770 H    5993  WAT5993     0.2052
  17977  O        -29.5500   10.0830  -13.2000 O.3  5994  WAT5994    -0.4105
  17978  H1       -29.0930   10.8940  -12.9740 H    5994  WAT5994     0.2052
  17979  H2       -29.9010    9.7660  -12.3680 H    5994  WAT5994     0.2052
  17980  O        -27.2460   15.5940   -5.9700 O.3  5995  WAT5995    -0.4105
  17981  H1       -26.6020   15.8000   -5.2930 H    5995  WAT5995     0.2052
  17982  H2       -26.8830   14.8330   -6.4230 H    5995  WAT5995     0.2052
  17983  O        -25.9730   13.5970   -7.2530 O.3  5996  WAT5996    -0.4105
  17984  H1       -25.3310   12.8970   -7.1400 H    5996  WAT5996     0.2052
  17985  H2       -25.4480   14.3770   -7.4330 H    5996  WAT5996     0.2052
  17986  O        -22.1280   13.8820  -17.5290 O.3  5997  WAT5997    -0.4105
  17987  H1       -22.3540   13.1650  -16.9360 H    5997  WAT5997     0.2052
  17988  H2       -22.5180   13.6330  -18.3670 H    5997  WAT5997     0.2052
  17989  O        -24.1990   14.3970   -4.0490 O.3  5998  WAT5998    -0.4105
  17990  H1       -23.8640   14.9830   -3.3710 H    5998  WAT5998     0.2052
  17991  H2       -25.1190   14.2660   -3.8190 H    5998  WAT5998     0.2052
  17992  O        -22.5460   11.7990  -15.8670 O.3  5999  WAT5999    -0.4105
  17993  H1       -22.8340   12.2610  -15.0800 H    5999  WAT5999     0.2052
  17994  H2       -21.7510   11.3390  -15.5990 H    5999  WAT5999     0.2052
  17995  O        -28.3710   14.4460   -0.8800 O.3  6000  WAT6000    -0.4105
  17996  H1       -28.6910   13.7270   -0.3360 H    6000  WAT6000     0.2052
  17997  H2       -29.0450   15.1210   -0.8070 H    6000  WAT6000     0.2052
  17998  O        -25.1550    4.6790   -5.5170 O.3  6001  WAT6001    -0.4105
  17999  H1       -24.7870    3.8580   -5.1890 H    6001  WAT6001     0.2052
  18000  H2       -26.0150    4.7390   -5.1010 H    6001  WAT6001     0.2052
  18001  O        -21.7890    3.6340  -14.7080 O.3  6002  WAT6002    -0.4105
  18002  H1       -22.4180    3.7390  -15.4220 H    6002  WAT6002     0.2052
  18003  H2       -22.2840    3.8540  -13.9180 H    6002  WAT6002     0.2052
  18004  O        -27.3430   15.3550  -17.2740 O.3  6003  WAT6003    -0.4105
  18005  H1       -27.2420   15.1510  -18.2040 H    6003  WAT6003     0.2052
  18006  H2       -28.2430   15.1010  -17.0700 H    6003  WAT6003     0.2052
  18007  O        -28.1950    7.3320   -5.2930 O.3  6004  WAT6004    -0.4105
  18008  H1       -27.6970    7.8070   -4.6280 H    6004  WAT6004     0.2052
  18009  H2       -28.0530    6.4090   -5.0860 H    6004  WAT6004     0.2052
  18010  O        -25.7890    2.6380  -11.8530 O.3  6005  WAT6005    -0.4105
  18011  H1       -25.9120    2.6560  -12.8020 H    6005  WAT6005     0.2052
  18012  H2       -24.8410    2.6860  -11.7330 H    6005  WAT6005     0.2052
  18013  O        -28.7010   17.8730  -12.5800 O.3  6006  WAT6006    -0.4105
  18014  H1       -28.4470   17.8360  -13.5020 H    6006  WAT6006     0.2052
  18015  H2       -29.6500   17.7470  -12.5870 H    6006  WAT6006     0.2052
  18016  O        -20.9880    3.5490   -4.4500 O.3  6007  WAT6007    -0.4105
  18017  H1       -21.4910    4.2900   -4.1110 H    6007  WAT6007     0.2052
  18018  H2       -20.1730    3.9380   -4.7660 H    6007  WAT6007     0.2052
  18019  O        -22.6960    8.7930  -11.0040 O.3  6008  WAT6008    -0.4105
  18020  H1       -23.6370    8.8080  -10.8290 H    6008  WAT6008     0.2052
  18021  H2       -22.3820    8.0060  -10.5580 H    6008  WAT6008     0.2052
  18022  O        -20.6940   15.9630   -9.3280 O.3  6009  WAT6009    -0.4105
  18023  H1       -20.5690   16.7870   -8.8560 H    6009  WAT6009     0.2052
  18024  H2       -19.8270   15.7530   -9.6760 H    6009  WAT6009     0.2052
  18025  O        -25.3800   13.3490   -0.5210 O.3  6010  WAT6010    -0.4105
  18026  H1       -25.9860   13.3720   -1.2610 H    6010  WAT6010     0.2052
  18027  H2       -25.6840   12.6170    0.0160 H    6010  WAT6010     0.2052
  18028  O        -23.9500   17.0770   -1.9100 O.3  6011  WAT6011    -0.4105
  18029  H1       -22.9970   16.9930   -1.9600 H    6011  WAT6011     0.2052
  18030  H2       -24.0970   17.7410   -1.2360 H    6011  WAT6011     0.2052
  18031  O        -21.0590   16.4570  -16.4100 O.3  6012  WAT6012    -0.4105
  18032  H1       -21.3440   16.0430  -17.2250 H    6012  WAT6012     0.2052
  18033  H2       -21.2570   17.3850  -16.5300 H    6012  WAT6012     0.2052
  18034  O        -29.5940   12.4500  -17.9700 O.3  6013  WAT6013    -0.4105
  18035  H1       -29.6990   11.8350  -17.2440 H    6013  WAT6013     0.2052
  18036  H2       -29.7610   11.9270  -18.7540 H    6013  WAT6013     0.2052
  18037  O        -26.3540   11.5120  -17.3660 O.3  6014  WAT6014    -0.4105
  18038  H1       -26.9030   11.9590  -16.7210 H    6014  WAT6014     0.2052
  18039  H2       -25.7320   11.0070  -16.8420 H    6014  WAT6014     0.2052
  18040  O        -22.3000   12.8660   -1.4340 O.3  6015  WAT6015    -0.4105
  18041  H1       -21.5590   13.2040   -1.9370 H    6015  WAT6015     0.2052
  18042  H2       -23.0630   13.0350   -1.9870 H    6015  WAT6015     0.2052
  18043  O        -28.1730    9.4950  -18.2210 O.3  6016  WAT6016    -0.4105
  18044  H1       -27.6530    8.7800  -18.5870 H    6016  WAT6016     0.2052
  18045  H2       -27.5260   10.1330  -17.9210 H    6016  WAT6016     0.2052
  18046  O        -23.6260   10.9180   -2.8980 O.3  6017  WAT6017    -0.4105
  18047  H1       -23.2110   11.0720   -2.0490 H    6017  WAT6017     0.2052
  18048  H2       -24.5600   11.0430   -2.7350 H    6017  WAT6017     0.2052
  18049  O        -23.1530    8.2570   -0.8940 O.3  6018  WAT6018    -0.4105
  18050  H1       -22.5710    7.5030   -0.9820 H    6018  WAT6018     0.2052
  18051  H2       -22.9770    8.7880   -1.6710 H    6018  WAT6018     0.2052
  18052  O        -29.2700    1.9740   -5.5500 O.3  6019  WAT6019    -0.4105
  18053  H1       -29.7180    1.9970   -6.3950 H    6019  WAT6019     0.2052
  18054  H2       -29.9030    1.5760   -4.9530 H    6019  WAT6019     0.2052
  18055  O        -28.8640   10.8700   -4.9280 O.3  6020  WAT6020    -0.4105
  18056  H1       -28.4450   11.7130   -5.1010 H    6020  WAT6020     0.2052
  18057  H2       -29.7830   11.0070   -5.1580 H    6020  WAT6020     0.2052
  18058  O        -26.5280    8.6010   -3.5450 O.3  6021  WAT6021    -0.4105
  18059  H1       -26.4080    8.0050   -2.8050 H    6021  WAT6021     0.2052
  18060  H2       -25.6680    8.6380   -3.9640 H    6021  WAT6021     0.2052
  18061  O        -24.1890    9.1550   -4.9680 O.3  6022  WAT6022    -0.4105
  18062  H1       -24.7150    9.6790   -5.5720 H    6022  WAT6022     0.2052
  18063  H2       -23.8460    9.7880   -4.3370 H    6022  WAT6022     0.2052
  18064  O        -24.9410    4.7600   -2.0540 O.3  6023  WAT6023    -0.4105
  18065  H1       -25.6300    4.0980   -2.1190 H    6023  WAT6023     0.2052
  18066  H2       -24.2210    4.3140   -1.6090 H    6023  WAT6023     0.2052
  18067  O        -24.3110    1.3550  -15.9950 O.3  6024  WAT6024    -0.4105
  18068  H1       -24.0310    0.5120  -15.6390 H    6024  WAT6024     0.2052
  18069  H2       -25.0850    1.5880  -15.4810 H    6024  WAT6024     0.2052
  18070  O        -28.1570   18.4100   -3.5540 O.3  6025  WAT6025    -0.4105
  18071  H1       -28.2310   19.3140   -3.2470 H    6025  WAT6025     0.2052
  18072  H2       -29.0590   18.0910   -3.5820 H    6025  WAT6025     0.2052
  18073  O        -27.6090   17.5760  -15.9310 O.3  6026  WAT6026    -0.4105
  18074  H1       -26.7130   17.9140  -15.9090 H    6026  WAT6026     0.2052
  18075  H2       -27.5770   16.8540  -16.5590 H    6026  WAT6026     0.2052
  18076  O        -20.6290   16.1060   -3.2250 O.3  6027  WAT6027    -0.4105
  18077  H1       -21.2290   16.1660   -3.9680 H    6027  WAT6027     0.2052
  18078  H2       -20.5000   15.1670   -3.0950 H    6027  WAT6027     0.2052
  18079  O        -19.3890   13.8480  -17.8880 O.3  6028  WAT6028    -0.4105
  18080  H1       -20.2200   13.9160  -17.4170 H    6028  WAT6028     0.2052
  18081  H2       -19.2120   14.7390  -18.1910 H    6028  WAT6028     0.2052
  18082  O        -19.9330   10.5930  -15.3840 O.3  6029  WAT6029    -0.4105
  18083  H1       -19.1710   11.1630  -15.2780 H    6029  WAT6029     0.2052
  18084  H2       -19.9180   10.0260  -14.6130 H    6029  WAT6029     0.2052
  18085  O        -18.9270   11.4480  -10.5400 O.3  6030  WAT6030    -0.4105
  18086  H1       -18.5560   10.6650  -10.9470 H    6030  WAT6030     0.2052
  18087  H2       -18.2870   12.1370  -10.7180 H    6030  WAT6030     0.2052
  18088  O        -21.9440   12.8320   -5.1270 O.3  6031  WAT6031    -0.4105
  18089  H1       -22.7580   13.2610   -4.8650 H    6031  WAT6031     0.2052
  18090  H2       -21.5360   13.4430   -5.7400 H    6031  WAT6031     0.2052
  18091  O        -19.8810   10.8860  -18.2270 O.3  6032  WAT6032    -0.4105
  18092  H1       -19.6060   11.7940  -18.3550 H    6032  WAT6032     0.2052
  18093  H2       -20.0700   10.8230  -17.2910 H    6032  WAT6032     0.2052
  18094  O        -23.4840    3.9110  -16.9320 O.3  6033  WAT6033    -0.4105
  18095  H1       -23.0650    3.7240  -17.7720 H    6033  WAT6033     0.2052
  18096  H2       -23.7900    3.0590  -16.6210 H    6033  WAT6033     0.2052
  18097  O        -19.9850    8.8230  -13.2340 O.3  6034  WAT6034    -0.4105
  18098  H1       -20.3600    8.0560  -13.6660 H    6034  WAT6034     0.2052
  18099  H2       -20.7150    9.2050  -12.7470 H    6034  WAT6034     0.2052
  18100  O        -20.5950    7.9700   -3.6000 O.3  6035  WAT6035    -0.4105
  18101  H1       -20.8260    7.7420   -4.5000 H    6035  WAT6035     0.2052
  18102  H2       -20.3340    8.8900   -3.6460 H    6035  WAT6035     0.2052
  18103  O        -22.1560    3.1960   -0.8220 O.3  6036  WAT6036    -0.4105
  18104  H1       -21.2790    3.2040   -0.4390 H    6036  WAT6036     0.2052
  18105  H2       -22.1440    2.4590   -1.4330 H    6036  WAT6036     0.2052
  18106  O        -20.7100    7.0490   -9.9330 O.3  6037  WAT6037    -0.4105
  18107  H1       -20.1860    6.5550  -10.5640 H    6037  WAT6037     0.2052
  18108  H2       -20.1240    7.1840   -9.1890 H    6037  WAT6037     0.2052
  18109  O        -20.5310    7.1330   -6.4110 O.3  6038  WAT6038    -0.4105
  18110  H1       -21.4810    7.0990   -6.2970 H    6038  WAT6038     0.2052
  18111  H2       -20.3490    8.0430   -6.6460 H    6038  WAT6038     0.2052
  18112  O        -21.2200    6.3060  -13.9940 O.3  6039  WAT6039    -0.4105
  18113  H1       -20.7240    6.0730  -13.2090 H    6039  WAT6039     0.2052
  18114  H2       -21.4180    5.4670  -14.4100 H    6039  WAT6039     0.2052
  18115  O        -19.7910    4.9420  -11.4600 O.3  6040  WAT6040    -0.4105
  18116  H1       -19.9010    4.7880  -10.5220 H    6040  WAT6040     0.2052
  18117  H2       -19.0300    4.4140  -11.7030 H    6040  WAT6040     0.2052
  18118  O        -21.4440    0.8820   -5.0020 O.3  6041  WAT6041    -0.4105
  18119  H1       -20.8070    1.4950   -4.6360 H    6041  WAT6041     0.2052
  18120  H2       -21.2970    0.9180   -5.9470 H    6041  WAT6041     0.2052
  18121  O        -18.9020    2.7730  -18.2200 O.3  6042  WAT6042    -0.4105
  18122  H1       -17.9770    2.6410  -18.4280 H    6042  WAT6042     0.2052
  18123  H2       -18.9240    2.8520  -17.2660 H    6042  WAT6042     0.2052
  18124  O        -18.8280    3.5440  -15.5940 O.3  6043  WAT6043    -0.4105
  18125  H1       -19.6230    3.4790  -15.0650 H    6043  WAT6043     0.2052
  18126  H2       -18.6240    4.4790  -15.6060 H    6043  WAT6043     0.2052
  18127  O        -21.8860   17.5830  -11.6000 O.3  6044  WAT6044    -0.4105
  18128  H1       -21.2900   17.2620  -12.2770 H    6044  WAT6044     0.2052
  18129  H2       -21.6280   17.1110  -10.8090 H    6044  WAT6044     0.2052
  18130  O        -28.0740    2.0340   -2.0950 O.3  6045  WAT6045    -0.4105
  18131  H1       -28.1350    2.6270   -1.3450 H    6045  WAT6045     0.2052
  18132  H2       -27.1340    1.9270   -2.2400 H    6045  WAT6045     0.2052
  18133  O        -25.4370    1.6910   -2.4550 O.3  6046  WAT6046    -0.4105
  18134  H1       -24.8230    2.0090   -3.1170 H    6046  WAT6046     0.2052
  18135  H2       -24.8920    1.2060   -1.8360 H    6046  WAT6046     0.2052
  18136  O        -19.0190   17.5910   -5.0490 O.3  6047  WAT6047    -0.4105
  18137  H1       -19.5130   17.9870   -5.7660 H    6047  WAT6047     0.2052
  18138  H2       -19.6280   16.9660   -4.6550 H    6047  WAT6047     0.2052
  18139  O        -24.6960    0.2550   -6.1280 O.3  6048  WAT6048    -0.4105
  18140  H1       -25.5700    0.5880   -6.3310 H    6048  WAT6048     0.2052
  18141  H2       -24.8050   -0.2180   -5.3030 H    6048  WAT6048     0.2052
  18142  O        -23.7890    2.4620   -4.7440 O.3  6049  WAT6049    -0.4105
  18143  H1       -24.1170    1.6470   -5.1240 H    6049  WAT6049     0.2052
  18144  H2       -22.8400    2.4190   -4.8680 H    6049  WAT6049     0.2052
  18145  O        -21.3350   18.2330   -7.7700 O.3  6050  WAT6050    -0.4105
  18146  H1       -21.7950   18.9850   -8.1450 H    6050  WAT6050     0.2052
  18147  H2       -21.9640   17.5140   -7.8290 H    6050  WAT6050     0.2052
  18148  O        -28.1660   17.4330   -7.7690 O.3  6051  WAT6051    -0.4105
  18149  H1       -27.8780   17.1780   -8.6450 H    6051  WAT6051     0.2052
  18150  H2       -27.6540   16.8800   -7.1780 H    6051  WAT6051     0.2052
  18151  O        -26.9480    1.1720   -7.1890 O.3  6052  WAT6052    -0.4105
  18152  H1       -27.7310    1.6460   -6.9090 H    6052  WAT6052     0.2052
  18153  H2       -27.2420    0.2670   -7.2980 H    6052  WAT6052     0.2052
  18154  O        -22.3960    1.8740   -9.1440 O.3  6053  WAT6053    -0.4105
  18155  H1       -21.9550    1.8180   -9.9920 H    6053  WAT6053     0.2052
  18156  H2       -22.6650    2.7900   -9.0730 H    6053  WAT6053     0.2052
  18157  O        -20.5320    1.5050  -11.1330 O.3  6054  WAT6054    -0.4105
  18158  H1       -20.5930    0.5620  -11.2800 H    6054  WAT6054     0.2052
  18159  H2       -19.7530    1.6130  -10.5880 H    6054  WAT6054     0.2052
  18160  O        -29.0630    3.5900  -11.6780 O.3  6055  WAT6055    -0.4105
  18161  H1       -29.8750    3.2160  -12.0180 H    6055  WAT6055     0.2052
  18162  H2       -28.5590    2.8350  -11.3750 H    6055  WAT6055     0.2052
  18163  O        -24.5600    0.2550  -10.4390 O.3  6056  WAT6056    -0.4105
  18164  H1       -23.9570    0.8270   -9.9640 H    6056  WAT6056     0.2052
  18165  H2       -25.3010    0.8180  -10.6620 H    6056  WAT6056     0.2052
  18166  O        -21.4170    0.6570  -15.1650 O.3  6057  WAT6057    -0.4105
  18167  H1       -21.2220    1.5550  -14.8980 H    6057  WAT6057     0.2052
  18168  H2       -22.2040    0.4250  -14.6720 H    6057  WAT6057     0.2052
  18169  O        -28.0990   18.3540   -0.4020 O.3  6058  WAT6058    -0.4105
  18170  H1       -27.1720   18.1190   -0.3580 H    6058  WAT6058     0.2052
  18171  H2       -28.1140   19.1810   -0.8830 H    6058  WAT6058     0.2052
  18172  O        -19.8640   17.8970  -13.4050 O.3  6059  WAT6059    -0.4105
  18173  H1       -19.6890   17.2110  -14.0480 H    6059  WAT6059     0.2052
  18174  H2       -20.5620   18.4210  -13.7970 H    6059  WAT6059     0.2052
  18175  O        -24.3110    0.4340   -0.0600 O.3  6060  WAT6060    -0.4105
  18176  H1       -24.4240    0.7540    0.8350 H    6060  WAT6060     0.2052
  18177  H2       -23.4940    0.8350   -0.3560 H    6060  WAT6060     0.2052
  18178  O        -21.5310   17.5810   -0.5780 O.3  6061  WAT6061    -0.4105
  18179  H1       -20.7380   17.0860   -0.7850 H    6061  WAT6061     0.2052
  18180  H2       -21.2380   18.2600    0.0300 H    6061  WAT6061     0.2052
  18181  O        -27.2730   10.2310  -27.8150 O.3  6062  WAT6062    -0.4105
  18182  H1       -28.0490    9.7510  -27.5250 H    6062  WAT6062     0.2052
  18183  H2       -26.6220    9.5520  -27.9900 H    6062  WAT6062     0.2052
  18184  O        -23.2520   14.6370  -29.0350 O.3  6063  WAT6063    -0.4105
  18185  H1       -23.7140   13.8660  -28.7070 H    6063  WAT6063     0.2052
  18186  H2       -22.4400   14.6640  -28.5300 H    6063  WAT6063     0.2052
  18187  O        -27.8320   12.9070  -27.8080 O.3  6064  WAT6064    -0.4105
  18188  H1       -27.9010   11.9660  -27.9690 H    6064  WAT6064     0.2052
  18189  H2       -27.0700   12.9970  -27.2360 H    6064  WAT6064     0.2052
  18190  O        -26.8020    5.7140  -27.5810 O.3  6065  WAT6065    -0.4105
  18191  H1       -26.4250    4.8410  -27.6940 H    6065  WAT6065     0.2052
  18192  H2       -26.9000    6.0500  -28.4720 H    6065  WAT6065     0.2052
  18193  O        -18.7290    5.2260  -24.0840 O.3  6066  WAT6066    -0.4105
  18194  H1       -19.4340    5.6140  -24.6030 H    6066  WAT6066     0.2052
  18195  H2       -18.4640    5.9210  -23.4820 H    6066  WAT6066     0.2052
  18196  O        -22.7830    5.1490  -27.8760 O.3  6067  WAT6067    -0.4105
  18197  H1       -23.4880    5.4380  -27.2960 H    6067  WAT6067     0.2052
  18198  H2       -22.4220    5.9590  -28.2360 H    6067  WAT6067     0.2052
  18199  O        -21.1670   14.7670  -25.6130 O.3  6068  WAT6068    -0.4105
  18200  H1       -21.8510   15.4360  -25.6210 H    6068  WAT6068     0.2052
  18201  H2       -20.6280   14.9650  -26.3790 H    6068  WAT6068     0.2052
  18202  O        -19.7150    4.5950  -27.4850 O.3  6069  WAT6069    -0.4105
  18203  H1       -20.6620    4.6280  -27.3530 H    6069  WAT6069     0.2052
  18204  H2       -19.3900    5.4080  -27.1000 H    6069  WAT6069     0.2052
  18205  O        -23.6310   16.6110  -26.8990 O.3  6070  WAT6070    -0.4105
  18206  H1       -23.6180   16.2070  -27.7660 H    6070  WAT6070     0.2052
  18207  H2       -24.1840   17.3860  -27.0020 H    6070  WAT6070     0.2052
  18208  O        -24.2330   11.5140  -25.5700 O.3  6071  WAT6071    -0.4105
  18209  H1       -23.8160   11.3000  -26.4050 H    6071  WAT6071     0.2052
  18210  H2       -23.5090   11.7710  -24.9990 H    6071  WAT6071     0.2052
  18211  O        -20.2860    9.9130  -25.4790 O.3  6072  WAT6072    -0.4105
  18212  H1       -21.1140    9.9820  -25.9540 H    6072  WAT6072     0.2052
  18213  H2       -19.6910   10.4980  -25.9470 H    6072  WAT6072     0.2052
  18214  O        -23.3220    6.7000  -24.5330 O.3  6073  WAT6073    -0.4105
  18215  H1       -23.7350    7.5250  -24.2790 H    6073  WAT6073     0.2052
  18216  H2       -24.0550    6.1140  -24.7260 H    6073  WAT6073     0.2052
  18217  O        -22.6320   16.7460  -23.8450 O.3  6074  WAT6074    -0.4105
  18218  H1       -23.1090   17.5530  -24.0380 H    6074  WAT6074     0.2052
  18219  H2       -23.3160   16.0930  -23.6920 H    6074  WAT6074     0.2052
  18220  O        -19.0520   16.5070  -18.7760 O.3  6075  WAT6075    -0.4105
  18221  H1       -18.5760   16.9850  -18.0970 H    6075  WAT6075     0.2052
  18222  H2       -18.4310   16.4380  -19.5010 H    6075  WAT6075     0.2052
  18223  O        -19.6490   13.6980  -21.6160 O.3  6076  WAT6076    -0.4105
  18224  H1       -19.5230   13.4590  -22.5340 H    6076  WAT6076     0.2052
  18225  H2       -19.6070   12.8660  -21.1440 H    6076  WAT6076     0.2052
  18226  O        -25.7870   17.4010  -23.0460 O.3  6077  WAT6077    -0.4105
  18227  H1       -25.2730   17.3120  -22.2440 H    6077  WAT6077     0.2052
  18228  H2       -26.6300   17.7470  -22.7540 H    6077  WAT6077     0.2052
  18229  O        -19.7960    5.7510  -20.6510 O.3  6078  WAT6078    -0.4105
  18230  H1       -20.4120    6.2590  -21.1790 H    6078  WAT6078     0.2052
  18231  H2       -20.1170    4.8510  -20.7080 H    6078  WAT6078     0.2052
  18232  O        -27.7350    4.5900  -23.1850 O.3  6079  WAT6079    -0.4105
  18233  H1       -28.1970    4.7990  -22.3730 H    6079  WAT6079     0.2052
  18234  H2       -28.1370    3.7760  -23.4880 H    6079  WAT6079     0.2052
  18235  O        -22.7350    5.8110  -22.0550 O.3  6080  WAT6080    -0.4105
  18236  H1       -23.5850    5.5120  -21.7340 H    6080  WAT6080     0.2052
  18237  H2       -22.8940    6.0560  -22.9670 H    6080  WAT6080     0.2052
  18238  O        -25.6400    7.3120  -19.9550 O.3  6081  WAT6081    -0.4105
  18239  H1       -25.3140    6.4780  -20.2950 H    6081  WAT6081     0.2052
  18240  H2       -24.8520    7.8340  -19.8070 H    6081  WAT6081     0.2052
  18241  O        -29.7910    7.7460  -20.3940 O.3  6082  WAT6082    -0.4105
  18242  H1       -29.8860    6.8050  -20.5440 H    6082  WAT6082     0.2052
  18243  H2       -28.9470    7.9670  -20.7890 H    6082  WAT6082     0.2052
  18244  O        -28.0850    4.2400  -19.1710 O.3  6083  WAT6083    -0.4105
  18245  H1       -28.7750    4.0480  -18.5360 H    6083  WAT6083     0.2052
  18246  H2       -27.3420    4.5240  -18.6390 H    6083  WAT6083     0.2052
  18247  O        -25.8090    8.0800  -26.3360 O.3  6084  WAT6084    -0.4105
  18248  H1       -26.5410    8.5890  -25.9870 H    6084  WAT6084     0.2052
  18249  H2       -26.2060    7.2630  -26.6370 H    6084  WAT6084     0.2052
  18250  O        -29.3710    4.7560  -27.9300 O.3  6085  WAT6085    -0.4105
  18251  H1       -29.3670    4.3150  -28.7800 H    6085  WAT6085     0.2052
  18252  H2       -28.4760    5.0770  -27.8230 H    6085  WAT6085     0.2052
  18253  O        -25.3460    3.5340  -26.9230 O.3  6086  WAT6086    -0.4105
  18254  H1       -25.3290    3.9840  -26.0790 H    6086  WAT6086     0.2052
  18255  H2       -25.5950    2.6340  -26.7100 H    6086  WAT6086     0.2052
  18256  O        -21.9190    0.9470  -21.0850 O.3  6087  WAT6087    -0.4105
  18257  H1       -21.5950    0.2160  -20.5590 H    6087  WAT6087     0.2052
  18258  H2       -21.8840    0.6280  -21.9870 H    6087  WAT6087     0.2052
  18259  O        -29.0700    8.8160  -26.1840 O.3  6088  WAT6088    -0.4105
  18260  H1       -28.7030    8.3420  -25.4380 H    6088  WAT6088     0.2052
  18261  H2       -29.2600    9.6900  -25.8430 H    6088  WAT6088     0.2052
  18262  O        -21.9930   11.0590  -27.4760 O.3  6089  WAT6089    -0.4105
  18263  H1       -21.2730   11.5550  -27.8670 H    6089  WAT6089     0.2052
  18264  H2       -22.1950   10.3810  -28.1210 H    6089  WAT6089     0.2052
  18265  O        -26.6110   11.1300  -21.5890 O.3  6090  WAT6090    -0.4105
  18266  H1       -26.6780   10.2100  -21.8430 H    6090  WAT6090     0.2052
  18267  H2       -27.2410   11.2280  -20.8750 H    6090  WAT6090     0.2052
  18268  O        -26.6800   13.9520  -21.8390 O.3  6091  WAT6091    -0.4105
  18269  H1       -26.6650   13.0200  -22.0570 H    6091  WAT6091     0.2052
  18270  H2       -27.3870   14.0380  -21.2000 H    6091  WAT6091     0.2052
  18271  O        -20.4690   10.5930  -22.4920 O.3  6092  WAT6092    -0.4105
  18272  H1       -21.1940   11.1860  -22.6890 H    6092  WAT6092     0.2052
  18273  H2       -19.9410   10.5850  -23.2910 H    6092  WAT6092     0.2052
  18274  O        -24.9390   12.3190  -28.9940 O.3  6093  WAT6093    -0.4105
  18275  H1       -24.5860   11.7220  -29.6530 H    6093  WAT6093     0.2052
  18276  H2       -25.8230   11.9930  -28.8230 H    6093  WAT6093     0.2052
  18277  O        -27.2460   15.5940  -24.7450 O.3  6094  WAT6094    -0.4105
  18278  H1       -26.6020   15.8000  -24.0670 H    6094  WAT6094     0.2052
  18279  H2       -26.8830   14.8330  -25.1980 H    6094  WAT6094     0.2052
  18280  O        -25.9730   13.5970  -26.0270 O.3  6095  WAT6095    -0.4105
  18281  H1       -25.3310   12.8970  -25.9140 H    6095  WAT6095     0.2052
  18282  H2       -25.4480   14.3770  -26.2070 H    6095  WAT6095     0.2052
  18283  O        -24.1990   14.3970  -22.8230 O.3  6096  WAT6096    -0.4105
  18284  H1       -23.8640   14.9830  -22.1460 H    6096  WAT6096     0.2052
  18285  H2       -25.1190   14.2660  -22.5940 H    6096  WAT6096     0.2052
  18286  O        -28.3710   14.4460  -19.6550 O.3  6097  WAT6097    -0.4105
  18287  H1       -28.6910   13.7270  -19.1100 H    6097  WAT6097     0.2052
  18288  H2       -29.0450   15.1210  -19.5810 H    6097  WAT6097     0.2052
  18289  O        -25.1550    4.6790  -24.2910 O.3  6098  WAT6098    -0.4105
  18290  H1       -24.7870    3.8580  -23.9630 H    6098  WAT6098     0.2052
  18291  H2       -26.0150    4.7390  -23.8750 H    6098  WAT6098     0.2052
  18292  O        -28.1950    7.3320  -24.0670 O.3  6099  WAT6099    -0.4105
  18293  H1       -27.6970    7.8070  -23.4020 H    6099  WAT6099     0.2052
  18294  H2       -28.0530    6.4090  -23.8600 H    6099  WAT6099     0.2052
  18295  O        -20.9880    3.5490  -23.2240 O.3  6100  WAT6100    -0.4105
  18296  H1       -21.4910    4.2900  -22.8850 H    6100  WAT6100     0.2052
  18297  H2       -20.1730    3.9380  -23.5410 H    6100  WAT6100     0.2052
  18298  O        -22.6960    8.7930  -29.7780 O.3  6101  WAT6101    -0.4105
  18299  H1       -23.6370    8.8080  -29.6030 H    6101  WAT6101     0.2052
  18300  H2       -22.3820    8.0060  -29.3320 H    6101  WAT6101     0.2052
  18301  O        -20.6940   15.9630  -28.1030 O.3  6102  WAT6102    -0.4105
  18302  H1       -20.5690   16.7870  -27.6300 H    6102  WAT6102     0.2052
  18303  H2       -19.8270   15.7530  -28.4500 H    6102  WAT6102     0.2052
  18304  O        -25.3800   13.3490  -19.2950 O.3  6103  WAT6103    -0.4105
  18305  H1       -25.9860   13.3720  -20.0350 H    6103  WAT6103     0.2052
  18306  H2       -25.6840   12.6170  -18.7580 H    6103  WAT6103     0.2052
  18307  O        -23.9500   17.0770  -20.6840 O.3  6104  WAT6104    -0.4105
  18308  H1       -22.9970   16.9930  -20.7340 H    6104  WAT6104     0.2052
  18309  H2       -24.0970   17.7410  -20.0110 H    6104  WAT6104     0.2052
  18310  O        -22.3000   12.8660  -20.2080 O.3  6105  WAT6105    -0.4105
  18311  H1       -21.5590   13.2040  -20.7110 H    6105  WAT6105     0.2052
  18312  H2       -23.0630   13.0350  -20.7610 H    6105  WAT6105     0.2052
  18313  O        -23.6260   10.9180  -21.6720 O.3  6106  WAT6106    -0.4105
  18314  H1       -23.2110   11.0720  -20.8230 H    6106  WAT6106     0.2052
  18315  H2       -24.5600   11.0430  -21.5100 H    6106  WAT6106     0.2052
  18316  O        -23.1530    8.2570  -19.6680 O.3  6107  WAT6107    -0.4105
  18317  H1       -22.5710    7.5030  -19.7560 H    6107  WAT6107     0.2052
  18318  H2       -22.9770    8.7880  -20.4450 H    6107  WAT6107     0.2052
  18319  O        -29.2700    1.9740  -24.3240 O.3  6108  WAT6108    -0.4105
  18320  H1       -29.7180    1.9970  -25.1690 H    6108  WAT6108     0.2052
  18321  H2       -29.9030    1.5760  -23.7270 H    6108  WAT6108     0.2052
  18322  O        -28.8640   10.8700  -23.7030 O.3  6109  WAT6109    -0.4105
  18323  H1       -28.4450   11.7130  -23.8750 H    6109  WAT6109     0.2052
  18324  H2       -29.7830   11.0070  -23.9320 H    6109  WAT6109     0.2052
  18325  O        -26.5280    8.6010  -22.3190 O.3  6110  WAT6110    -0.4105
  18326  H1       -26.4080    8.0050  -21.5790 H    6110  WAT6110     0.2052
  18327  H2       -25.6680    8.6380  -22.7390 H    6110  WAT6110     0.2052
  18328  O        -24.1890    9.1550  -23.7430 O.3  6111  WAT6111    -0.4105
  18329  H1       -24.7150    9.6790  -24.3460 H    6111  WAT6111     0.2052
  18330  H2       -23.8460    9.7880  -23.1120 H    6111  WAT6111     0.2052
  18331  O        -24.9410    4.7600  -20.8280 O.3  6112  WAT6112    -0.4105
  18332  H1       -25.6300    4.0980  -20.8930 H    6112  WAT6112     0.2052
  18333  H2       -24.2210    4.3140  -20.3830 H    6112  WAT6112     0.2052
  18334  O        -28.1570   18.4100  -22.3280 O.3  6113  WAT6113    -0.4105
  18335  H1       -28.2310   19.3140  -22.0210 H    6113  WAT6113     0.2052
  18336  H2       -29.0590   18.0910  -22.3560 H    6113  WAT6113     0.2052
  18337  O        -20.6290   16.1060  -21.9990 O.3  6114  WAT6114    -0.4105
  18338  H1       -21.2290   16.1660  -22.7430 H    6114  WAT6114     0.2052
  18339  H2       -20.5000   15.1670  -21.8690 H    6114  WAT6114     0.2052
  18340  O        -18.9270   11.4480  -29.3140 O.3  6115  WAT6115    -0.4105
  18341  H1       -18.5560   10.6650  -29.7210 H    6115  WAT6115     0.2052
  18342  H2       -18.2870   12.1370  -29.4930 H    6115  WAT6115     0.2052
  18343  O        -21.9440   12.8320  -23.9010 O.3  6116  WAT6116    -0.4105
  18344  H1       -22.7580   13.2610  -23.6390 H    6116  WAT6116     0.2052
  18345  H2       -21.5360   13.4430  -24.5150 H    6116  WAT6116     0.2052
  18346  O        -20.5950    7.9700  -22.3750 O.3  6117  WAT6117    -0.4105
  18347  H1       -20.8260    7.7420  -23.2750 H    6117  WAT6117     0.2052
  18348  H2       -20.3340    8.8900  -22.4200 H    6117  WAT6117     0.2052
  18349  O        -22.1560    3.1960  -19.5970 O.3  6118  WAT6118    -0.4105
  18350  H1       -21.2790    3.2040  -19.2130 H    6118  WAT6118     0.2052
  18351  H2       -22.1440    2.4590  -20.2070 H    6118  WAT6118     0.2052
  18352  O        -20.7100    7.0490  -28.7080 O.3  6119  WAT6119    -0.4105
  18353  H1       -20.1860    6.5550  -29.3390 H    6119  WAT6119     0.2052
  18354  H2       -20.1240    7.1840  -27.9630 H    6119  WAT6119     0.2052
  18355  O        -20.5310    7.1330  -25.1860 O.3  6120  WAT6120    -0.4105
  18356  H1       -21.4810    7.0990  -25.0710 H    6120  WAT6120     0.2052
  18357  H2       -20.3490    8.0430  -25.4210 H    6120  WAT6120     0.2052
  18358  O        -21.4440    0.8820  -23.7760 O.3  6121  WAT6121    -0.4105
  18359  H1       -20.8070    1.4950  -23.4110 H    6121  WAT6121     0.2052
  18360  H2       -21.2970    0.9180  -24.7220 H    6121  WAT6121     0.2052
  18361  O        -28.0740    2.0340  -20.8690 O.3  6122  WAT6122    -0.4105
  18362  H1       -28.1350    2.6270  -20.1190 H    6122  WAT6122     0.2052
  18363  H2       -27.1340    1.9270  -21.0140 H    6122  WAT6122     0.2052
  18364  O        -25.4370    1.6910  -21.2300 O.3  6123  WAT6123    -0.4105
  18365  H1       -24.8230    2.0090  -21.8920 H    6123  WAT6123     0.2052
  18366  H2       -24.8920    1.2060  -20.6100 H    6123  WAT6123     0.2052
  18367  O        -19.0190   17.5910  -23.8240 O.3  6124  WAT6124    -0.4105
  18368  H1       -19.5130   17.9870  -24.5410 H    6124  WAT6124     0.2052
  18369  H2       -19.6280   16.9660  -23.4300 H    6124  WAT6124     0.2052
  18370  O        -24.6960    0.2550  -24.9030 O.3  6125  WAT6125    -0.4105
  18371  H1       -25.5700    0.5880  -25.1050 H    6125  WAT6125     0.2052
  18372  H2       -24.8050   -0.2180  -24.0780 H    6125  WAT6125     0.2052
  18373  O        -23.7890    2.4620  -23.5190 O.3  6126  WAT6126    -0.4105
  18374  H1       -24.1170    1.6470  -23.8980 H    6126  WAT6126     0.2052
  18375  H2       -22.8400    2.4190  -23.6420 H    6126  WAT6126     0.2052
  18376  O        -21.3350   18.2330  -26.5450 O.3  6127  WAT6127    -0.4105
  18377  H1       -21.7950   18.9850  -26.9190 H    6127  WAT6127     0.2052
  18378  H2       -21.9640   17.5140  -26.6030 H    6127  WAT6127     0.2052
  18379  O        -28.1660   17.4330  -26.5430 O.3  6128  WAT6128    -0.4105
  18380  H1       -27.8780   17.1780  -27.4200 H    6128  WAT6128     0.2052
  18381  H2       -27.6540   16.8800  -25.9530 H    6128  WAT6128     0.2052
  18382  O        -26.9480    1.1720  -25.9630 O.3  6129  WAT6129    -0.4105
  18383  H1       -27.7310    1.6460  -25.6840 H    6129  WAT6129     0.2052
  18384  H2       -27.2420    0.2670  -26.0720 H    6129  WAT6129     0.2052
  18385  O        -22.3960    1.8740  -27.9190 O.3  6130  WAT6130    -0.4105
  18386  H1       -21.9550    1.8180  -28.7660 H    6130  WAT6130     0.2052
  18387  H2       -22.6650    2.7900  -27.8480 H    6130  WAT6130     0.2052
  18388  O        -24.5600    0.2550  -29.2140 O.3  6131  WAT6131    -0.4105
  18389  H1       -23.9570    0.8270  -28.7390 H    6131  WAT6131     0.2052
  18390  H2       -25.3010    0.8180  -29.4360 H    6131  WAT6131     0.2052
  18391  O        -28.0990   18.3540  -19.1760 O.3  6132  WAT6132    -0.4105
  18392  H1       -27.1720   18.1190  -19.1330 H    6132  WAT6132     0.2052
  18393  H2       -28.1140   19.1810  -19.6580 H    6132  WAT6132     0.2052
  18394  O        -24.3110    0.4340  -18.8340 O.3  6133  WAT6133    -0.4105
  18395  H1       -24.4240    0.7540  -17.9390 H    6133  WAT6133     0.2052
  18396  H2       -23.4940    0.8350  -19.1300 H    6133  WAT6133     0.2052
  18397  O        -21.5310   17.5810  -19.3520 O.3  6134  WAT6134    -0.4105
  18398  H1       -20.7380   17.0860  -19.5600 H    6134  WAT6134     0.2052
  18399  H2       -21.2380   18.2600  -18.7450 H    6134  WAT6134     0.2052
  18400  O        -25.4050  -10.3210   26.6270 O.3  6135  WAT6135    -0.4105
  18401  H1       -25.4860  -11.2360   26.3560 H    6135  WAT6135     0.2052
  18402  H2       -25.8190   -9.8240   25.9210 H    6135  WAT6135     0.2052
  18403  O        -27.2730   -8.5430   28.5080 O.3  6136  WAT6136    -0.4105
  18404  H1       -28.0490   -9.0230   28.7980 H    6136  WAT6136     0.2052
  18405  H2       -26.6220   -9.2230   28.3330 H    6136  WAT6136     0.2052
  18406  O        -23.2520   -4.1370   27.2880 O.3  6137  WAT6137    -0.4105
  18407  H1       -23.7140   -4.9080   27.6160 H    6137  WAT6137     0.2052
  18408  H2       -22.4400   -4.1110   27.7930 H    6137  WAT6137     0.2052
  18409  O        -27.0260   -1.8510   26.9080 O.3  6138  WAT6138    -0.4105
  18410  H1       -27.6450   -1.3960   26.3370 H    6138  WAT6138     0.2052
  18411  H2       -26.1710   -1.6960   26.5070 H    6138  WAT6138     0.2052
  18412  O        -27.8320   -5.8670   28.5150 O.3  6139  WAT6139    -0.4105
  18413  H1       -27.9010   -6.8080   28.3540 H    6139  WAT6139     0.2052
  18414  H2       -27.0700   -5.7770   29.0870 H    6139  WAT6139     0.2052
  18415  O        -26.8020  -13.0600   28.7420 O.3  6140  WAT6140    -0.4105
  18416  H1       -26.4250  -13.9330   28.6290 H    6140  WAT6140     0.2052
  18417  H2       -26.9000  -12.7250   27.8510 H    6140  WAT6140     0.2052
  18418  O        -23.0190  -15.5650   25.6740 O.3  6141  WAT6141    -0.4105
  18419  H1       -22.1980  -16.0560   25.7170 H    6141  WAT6141     0.2052
  18420  H2       -22.9860  -14.9760   26.4280 H    6141  WAT6141     0.2052
  18421  O        -26.1600   -6.9670   24.3010 O.3  6142  WAT6142    -0.4105
  18422  H1       -26.7780   -6.5020   23.7380 H    6142  WAT6142     0.2052
  18423  H2       -25.6470   -6.2750   24.7180 H    6142  WAT6142     0.2052
  18424  O        -22.7830  -13.6250   28.4470 O.3  6143  WAT6143    -0.4105
  18425  H1       -23.4880  -13.3370   29.0280 H    6143  WAT6143     0.2052
  18426  H2       -22.4220  -12.8150   28.0870 H    6143  WAT6143     0.2052
  18427  O        -19.7150  -14.1800   28.8380 O.3  6144  WAT6144    -0.4105
  18428  H1       -20.6620  -14.1460   28.9700 H    6144  WAT6144     0.2052
  18429  H2       -19.3900  -13.3660   29.2230 H    6144  WAT6144     0.2052
  18430  O        -23.6310   -2.1630   29.4240 O.3  6145  WAT6145    -0.4105
  18431  H1       -23.6180   -2.5670   28.5570 H    6145  WAT6145     0.2052
  18432  H2       -24.1840   -1.3890   29.3210 H    6145  WAT6145     0.2052
  18433  O        -22.3370   -5.4420   24.5140 O.3  6146  WAT6146    -0.4105
  18434  H1       -22.4470   -6.3840   24.6380 H    6146  WAT6146     0.2052
  18435  H2       -22.3400   -5.0800   25.4000 H    6146  WAT6146     0.2052
  18436  O        -26.7950   -9.8150   23.8700 O.3  6147  WAT6147    -0.4105
  18437  H1       -27.7220   -9.8810   24.0990 H    6147  WAT6147     0.2052
  18438  H2       -26.6420   -8.8770   23.7550 H    6147  WAT6147     0.2052
  18439  O        -26.8080  -13.5440   20.8660 O.3  6148  WAT6148    -0.4105
  18440  H1       -27.7470  -13.3820   20.9520 H    6148  WAT6148     0.2052
  18441  H2       -26.4890  -12.8250   20.3200 H    6148  WAT6148     0.2052
  18442  O        -22.7650   -8.2530   24.3730 O.3  6149  WAT6149    -0.4105
  18443  H1       -23.3840   -8.5910   23.7260 H    6149  WAT6149     0.2052
  18444  H2       -22.7820   -8.8970   25.0810 H    6149  WAT6149     0.2052
  18445  O        -24.5880   -9.0150   21.3810 O.3  6150  WAT6150    -0.4105
  18446  H1       -24.1490   -9.8520   21.2340 H    6150  WAT6150     0.2052
  18447  H2       -23.8750   -8.3820   21.4670 H    6150  WAT6150     0.2052
  18448  O        -26.4790   -4.0750   25.3490 O.3  6151  WAT6151    -0.4105
  18449  H1       -26.0390   -3.3320   24.9340 H    6151  WAT6151     0.2052
  18450  H2       -26.5400   -3.8320   26.2730 H    6151  WAT6151     0.2052
  18451  O        -21.0070  -17.7600   19.6950 O.3  6152  WAT6152    -0.4105
  18452  H1       -21.3190  -17.6680   20.5950 H    6152  WAT6152     0.2052
  18453  H2       -20.2450  -17.1820   19.6440 H    6152  WAT6152     0.2052
  18454  O        -23.8120   -1.0880   22.7050 O.3  6153  WAT6153    -0.4105
  18455  H1       -23.9720   -1.3780   23.6030 H    6153  WAT6153     0.2052
  18456  H2       -23.9770   -1.8640   22.1700 H    6153  WAT6153     0.2052
  18457  O        -24.1090   -3.5790   21.2650 O.3  6154  WAT6154    -0.4105
  18458  H1       -24.8030   -3.5820   20.6050 H    6154  WAT6154     0.2052
  18459  H2       -23.3670   -4.0030   20.8340 H    6154  WAT6154     0.2052
  18460  O        -24.5440   -1.9530   25.3400 O.3  6155  WAT6155    -0.4105
  18461  H1       -24.0880   -2.7340   25.6530 H    6155  WAT6155     0.2052
  18462  H2       -24.2050   -1.2420   25.8840 H    6155  WAT6155     0.2052
  18463  O        -28.9060  -17.4300   22.4150 O.3  6156  WAT6156    -0.4105
  18464  H1       -29.5310  -17.4340   23.1410 H    6156  WAT6156     0.2052
  18465  H2       -28.9930  -18.2970   22.0190 H    6156  WAT6156     0.2052
  18466  O        -25.0010  -11.9210   23.8620 O.3  6157  WAT6157    -0.4105
  18467  H1       -25.6000  -11.1970   23.6780 H    6157  WAT6157     0.2052
  18468  H2       -24.4530  -11.9830   23.0800 H    6157  WAT6157     0.2052
  18469  O        -26.3940  -13.2850   25.8920 O.3  6158  WAT6158    -0.4105
  18470  H1       -26.0010  -12.9670   25.0790 H    6158  WAT6158     0.2052
  18471  H2       -26.0330  -14.1640   26.0070 H    6158  WAT6158     0.2052
  18472  O        -29.3710  -14.0190   28.3930 O.3  6159  WAT6159    -0.4105
  18473  H1       -29.3670  -14.4600   27.5430 H    6159  WAT6159     0.2052
  18474  H2       -28.4760  -13.6970   28.5000 H    6159  WAT6159     0.2052
  18475  O        -29.3090  -13.0170   21.3830 O.3  6160  WAT6160    -0.4105
  18476  H1       -29.1880  -13.0590   22.3320 H    6160  WAT6160     0.2052
  18477  H2       -29.6940  -12.1550   21.2280 H    6160  WAT6160     0.2052
  18478  O        -21.9930   -7.7150   28.8470 O.3  6161  WAT6161    -0.4105
  18479  H1       -21.2730   -7.2190   28.4570 H    6161  WAT6161     0.2052
  18480  H2       -22.1950   -8.3930   28.2020 H    6161  WAT6161     0.2052
  18481  O        -26.5320  -16.3210   22.9900 O.3  6162  WAT6162    -0.4105
  18482  H1       -27.3460  -16.8200   22.9140 H    6162  WAT6162     0.2052
  18483  H2       -26.7260  -15.4810   22.5730 H    6162  WAT6162     0.2052
  18484  O        -23.8180  -11.9490   21.2860 O.3  6163  WAT6163    -0.4105
  18485  H1       -22.9300  -11.6380   21.1110 H    6163  WAT6163     0.2052
  18486  H2       -23.8470  -12.8220   20.8940 H    6163  WAT6163     0.2052
  18487  O        -27.8210   -5.7770   21.9650 O.3  6164  WAT6164    -0.4105
  18488  H1       -27.4800   -5.0330   21.4690 H    6164  WAT6164     0.2052
  18489  H2       -28.6500   -5.4640   22.3270 H    6164  WAT6164     0.2052
  18490  O        -21.5460  -10.6380   20.7540 O.3  6165  WAT6165    -0.4105
  18491  H1       -21.6300  -10.2070   19.9040 H    6165  WAT6165     0.2052
  18492  H2       -20.8270  -10.1780   21.1870 H    6165  WAT6165     0.2052
  18493  O        -20.5170   -3.7840   23.4820 O.3  6166  WAT6166    -0.4105
  18494  H1       -21.1600   -4.4380   23.7570 H    6166  WAT6166     0.2052
  18495  H2       -20.9040   -3.3780   22.7060 H    6166  WAT6166     0.2052
  18496  O        -24.9390   -6.4550   27.3290 O.3  6167  WAT6167    -0.4105
  18497  H1       -24.5860   -7.0530   26.6700 H    6167  WAT6167     0.2052
  18498  H2       -25.8230   -6.7810   27.5000 H    6167  WAT6167     0.2052
  18499  O        -28.8520   -5.6960   24.7360 O.3  6168  WAT6168    -0.4105
  18500  H1       -28.1650   -5.1490   25.1170 H    6168  WAT6168     0.2052
  18501  H2       -29.6390   -5.1510   24.7710 H    6168  WAT6168     0.2052
  18502  O        -29.5500   -8.6910   24.3490 O.3  6169  WAT6169    -0.4105
  18503  H1       -29.0930   -7.8800   24.5750 H    6169  WAT6169     0.2052
  18504  H2       -29.9010   -9.0090   25.1810 H    6169  WAT6169     0.2052
  18505  O        -22.1280   -4.8920   20.0200 O.3  6170  WAT6170    -0.4105
  18506  H1       -22.3540   -5.6090   20.6120 H    6170  WAT6170     0.2052
  18507  H2       -22.5180   -5.1410   19.1820 H    6170  WAT6170     0.2052
  18508  O        -22.5460   -6.9750   21.6810 O.3  6171  WAT6171    -0.4105
  18509  H1       -22.8340   -6.5140   22.4690 H    6171  WAT6171     0.2052
  18510  H2       -21.7510   -7.4350   21.9500 H    6171  WAT6171     0.2052
  18511  O        -21.7890  -15.1400   22.8410 O.3  6172  WAT6172    -0.4105
  18512  H1       -22.4180  -15.0360   22.1270 H    6172  WAT6172     0.2052
  18513  H2       -22.2840  -14.9200   23.6300 H    6172  WAT6172     0.2052
  18514  O        -27.3430   -3.4200   20.2740 O.3  6173  WAT6173    -0.4105
  18515  H1       -27.2420   -3.6230   19.3440 H    6173  WAT6173     0.2052
  18516  H2       -28.2430   -3.6740   20.4790 H    6173  WAT6173     0.2052
  18517  O        -25.7890  -16.1360   25.6960 O.3  6174  WAT6174    -0.4105
  18518  H1       -25.9120  -16.1180   24.7470 H    6174  WAT6174     0.2052
  18519  H2       -24.8410  -16.0890   25.8160 H    6174  WAT6174     0.2052
  18520  O        -28.7010   -0.9010   24.9690 O.3  6175  WAT6175    -0.4105
  18521  H1       -28.4470   -0.9390   24.0470 H    6175  WAT6175     0.2052
  18522  H2       -29.6500   -1.0280   24.9620 H    6175  WAT6175     0.2052
  18523  O        -22.6960   -9.9820   26.5450 O.3  6176  WAT6176    -0.4105
  18524  H1       -23.6370   -9.9670   26.7200 H    6176  WAT6176     0.2052
  18525  H2       -22.3820  -10.7680   26.9910 H    6176  WAT6176     0.2052
  18526  O        -20.6940   -2.8110   28.2200 O.3  6177  WAT6177    -0.4105
  18527  H1       -20.5690   -1.9880   28.6930 H    6177  WAT6177     0.2052
  18528  H2       -19.8270   -3.0220   27.8730 H    6177  WAT6177     0.2052
  18529  O        -21.0590   -2.3180   21.1380 O.3  6178  WAT6178    -0.4105
  18530  H1       -21.3440   -2.7310   20.3240 H    6178  WAT6178     0.2052
  18531  H2       -21.2570   -1.3890   21.0180 H    6178  WAT6178     0.2052
  18532  O        -29.5940   -6.3240   19.5790 O.3  6179  WAT6179    -0.4105
  18533  H1       -29.6990   -6.9390   20.3050 H    6179  WAT6179     0.2052
  18534  H2       -29.7610   -6.8480   18.7950 H    6179  WAT6179     0.2052
  18535  O        -26.3540   -7.2620   20.1830 O.3  6180  WAT6180    -0.4105
  18536  H1       -26.9030   -6.8150   20.8270 H    6180  WAT6180     0.2052
  18537  H2       -25.7320   -7.7670   20.7070 H    6180  WAT6180     0.2052
  18538  O        -28.1730   -9.2800   19.3270 O.3  6181  WAT6181    -0.4105
  18539  H1       -27.6530   -9.9950   18.9610 H    6181  WAT6181     0.2052
  18540  H2       -27.5260   -8.6410   19.6270 H    6181  WAT6181     0.2052
  18541  O        -24.3110  -17.4190   21.5540 O.3  6182  WAT6182    -0.4105
  18542  H1       -24.0310  -18.2620   21.9100 H    6182  WAT6182     0.2052
  18543  H2       -25.0850  -17.1870   22.0680 H    6182  WAT6182     0.2052
  18544  O        -27.6090   -1.1980   21.6170 O.3  6183  WAT6183    -0.4105
  18545  H1       -26.7130   -0.8600   21.6390 H    6183  WAT6183     0.2052
  18546  H2       -27.5770   -1.9200   20.9900 H    6183  WAT6183     0.2052
  18547  O        -19.3890   -4.9260   19.6610 O.3  6184  WAT6184    -0.4105
  18548  H1       -20.2200   -4.8590   20.1320 H    6184  WAT6184     0.2052
  18549  H2       -19.2120   -4.0360   19.3580 H    6184  WAT6184     0.2052
  18550  O        -19.9330   -8.1810   22.1640 O.3  6185  WAT6185    -0.4105
  18551  H1       -19.1710   -7.6120   22.2700 H    6185  WAT6185     0.2052
  18552  H2       -19.9180   -8.7490   22.9350 H    6185  WAT6185     0.2052
  18553  O        -18.9270   -7.3260   27.0090 O.3  6186  WAT6186    -0.4105
  18554  H1       -18.5560   -8.1100   26.6020 H    6186  WAT6186     0.2052
  18555  H2       -18.2870   -6.6380   26.8300 H    6186  WAT6186     0.2052
  18556  O        -19.8810   -7.8880   19.3220 O.3  6187  WAT6187    -0.4105
  18557  H1       -19.6060   -6.9800   19.1940 H    6187  WAT6187     0.2052
  18558  H2       -20.0700   -7.9520   20.2580 H    6187  WAT6187     0.2052
  18559  O        -23.4840  -14.8640   20.6170 O.3  6188  WAT6188    -0.4105
  18560  H1       -23.0650  -15.0500   19.7770 H    6188  WAT6188     0.2052
  18561  H2       -23.7900  -15.7160   20.9270 H    6188  WAT6188     0.2052
  18562  O        -19.9850   -9.9510   24.3150 O.3  6189  WAT6189    -0.4105
  18563  H1       -20.3600  -10.7180   23.8830 H    6189  WAT6189     0.2052
  18564  H2       -20.7150   -9.5690   24.8020 H    6189  WAT6189     0.2052
  18565  O        -20.7100  -11.7250   27.6150 O.3  6190  WAT6190    -0.4105
  18566  H1       -20.1860  -12.2190   26.9840 H    6190  WAT6190     0.2052
  18567  H2       -20.1240  -11.5900   28.3600 H    6190  WAT6190     0.2052
  18568  O        -21.2200  -12.4680   23.5550 O.3  6191  WAT6191    -0.4105
  18569  H1       -20.7240  -12.7010   24.3390 H    6191  WAT6191     0.2052
  18570  H2       -21.4180  -13.3070   23.1380 H    6191  WAT6191     0.2052
  18571  O        -19.7910  -13.8320   26.0880 O.3  6192  WAT6192    -0.4105
  18572  H1       -19.9010  -13.9860   27.0270 H    6192  WAT6192     0.2052
  18573  H2       -19.0300  -14.3600   25.8460 H    6192  WAT6192     0.2052
  18574  O        -18.9020  -16.0010   19.3290 O.3  6193  WAT6193    -0.4105
  18575  H1       -17.9770  -16.1330   19.1210 H    6193  WAT6193     0.2052
  18576  H2       -18.9240  -15.9220   20.2830 H    6193  WAT6193     0.2052
  18577  O        -18.8280  -15.2300   21.9550 O.3  6194  WAT6194    -0.4105
  18578  H1       -19.6230  -15.2960   22.4840 H    6194  WAT6194     0.2052
  18579  H2       -18.6240  -14.2950   21.9430 H    6194  WAT6194     0.2052
  18580  O        -21.8860   -1.1910   25.9480 O.3  6195  WAT6195    -0.4105
  18581  H1       -21.2900   -1.5120   25.2720 H    6195  WAT6195     0.2052
  18582  H2       -21.6280   -1.6640   26.7400 H    6195  WAT6195     0.2052
  18583  O        -21.3350   -0.5410   29.7780 O.3  6196  WAT6196    -0.4105
  18584  H1       -21.7950    0.2100   29.4040 H    6196  WAT6196     0.2052
  18585  H2       -21.9640   -1.2610   29.7200 H    6196  WAT6196     0.2052
  18586  O        -22.3960  -16.9000   28.4040 O.3  6197  WAT6197    -0.4105
  18587  H1       -21.9550  -16.9560   27.5570 H    6197  WAT6197     0.2052
  18588  H2       -22.6650  -15.9850   28.4760 H    6197  WAT6197     0.2052
  18589  O        -20.5320  -17.2690   26.4150 O.3  6198  WAT6198    -0.4105
  18590  H1       -20.5930  -18.2130   26.2680 H    6198  WAT6198     0.2052
  18591  H2       -19.7530  -17.1610   26.9610 H    6198  WAT6198     0.2052
  18592  O        -29.0630  -15.1840   25.8710 O.3  6199  WAT6199    -0.4105
  18593  H1       -29.8750  -15.5580   25.5310 H    6199  WAT6199     0.2052
  18594  H2       -28.5590  -15.9400   26.1730 H    6199  WAT6199     0.2052
  18595  O        -24.5600  -18.5200   27.1090 O.3  6200  WAT6200    -0.4105
  18596  H1       -23.9570  -17.9480   27.5840 H    6200  WAT6200     0.2052
  18597  H2       -25.3010  -17.9560   26.8870 H    6200  WAT6200     0.2052
  18598  O        -21.4170  -18.1180   22.3840 O.3  6201  WAT6201    -0.4105
  18599  H1       -21.2220  -17.2190   22.6500 H    6201  WAT6201     0.2052
  18600  H2       -22.2040  -18.3490   22.8770 H    6201  WAT6201     0.2052
  18601  O        -19.8640   -0.8780   24.1440 O.3  6202  WAT6202    -0.4105
  18602  H1       -19.6890   -1.5640   23.5000 H    6202  WAT6202     0.2052
  18603  H2       -20.5620   -0.3530   23.7520 H    6202  WAT6202     0.2052
  18604  O        -25.4050  -10.3210    7.8520 O.3  6203  WAT6203    -0.4105
  18605  H1       -25.4860  -11.2360    7.5820 H    6203  WAT6203     0.2052
  18606  H2       -25.8190   -9.8240    7.1460 H    6203  WAT6203     0.2052
  18607  O        -27.2730   -8.5430    9.7330 O.3  6204  WAT6204    -0.4105
  18608  H1       -28.0490   -9.0230   10.0230 H    6204  WAT6204     0.2052
  18609  H2       -26.6220   -9.2230    9.5590 H    6204  WAT6204     0.2052
  18610  O        -23.2520   -4.1370    8.5130 O.3  6205  WAT6205    -0.4105
  18611  H1       -23.7140   -4.9080    8.8420 H    6205  WAT6205     0.2052
  18612  H2       -22.4400   -4.1110    9.0190 H    6205  WAT6205     0.2052
  18613  O        -27.0260   -1.8510    8.1340 O.3  6206  WAT6206    -0.4105
  18614  H1       -27.6450   -1.3960    7.5630 H    6206  WAT6206     0.2052
  18615  H2       -26.1710   -1.6960    7.7330 H    6206  WAT6206     0.2052
  18616  O        -27.8320   -5.8670    9.7400 O.3  6207  WAT6207    -0.4105
  18617  H1       -27.9010   -6.8080    9.5790 H    6207  WAT6207     0.2052
  18618  H2       -27.0700   -5.7770   10.3130 H    6207  WAT6207     0.2052
  18619  O        -26.8020  -13.0600    9.9670 O.3  6208  WAT6208    -0.4105
  18620  H1       -26.4250  -13.9330    9.8550 H    6208  WAT6208     0.2052
  18621  H2       -26.9000  -12.7250    9.0760 H    6208  WAT6208     0.2052
  18622  O        -23.0190  -15.5650    6.9000 O.3  6209  WAT6209    -0.4105
  18623  H1       -22.1980  -16.0560    6.9430 H    6209  WAT6209     0.2052
  18624  H2       -22.9860  -14.9760    7.6530 H    6209  WAT6209     0.2052
  18625  O        -18.7290  -13.5490   13.4640 O.3  6210  WAT6210    -0.4105
  18626  H1       -19.4340  -13.1600   12.9460 H    6210  WAT6210     0.2052
  18627  H2       -18.4640  -12.8540   14.0670 H    6210  WAT6210     0.2052
  18628  O        -26.1600   -6.9670    5.5270 O.3  6211  WAT6211    -0.4105
  18629  H1       -26.7780   -6.5020    4.9630 H    6211  WAT6211     0.2052
  18630  H2       -25.6470   -6.2750    5.9440 H    6211  WAT6211     0.2052
  18631  O        -22.7830  -13.6250    9.6730 O.3  6212  WAT6212    -0.4105
  18632  H1       -23.4880  -13.3370   10.2530 H    6212  WAT6212     0.2052
  18633  H2       -22.4220  -12.8150    9.3130 H    6212  WAT6212     0.2052
  18634  O        -21.1670   -4.0080   11.9360 O.3  6213  WAT6213    -0.4105
  18635  H1       -21.8510   -3.3380   11.9270 H    6213  WAT6213     0.2052
  18636  H2       -20.6280   -3.8100   11.1700 H    6213  WAT6213     0.2052
  18637  O        -19.7150  -14.1800   10.0640 O.3  6214  WAT6214    -0.4105
  18638  H1       -20.6620  -14.1460   10.1950 H    6214  WAT6214     0.2052
  18639  H2       -19.3900  -13.3660   10.4490 H    6214  WAT6214     0.2052
  18640  O        -23.6310   -2.1630   10.6500 O.3  6215  WAT6215    -0.4105
  18641  H1       -23.6180   -2.5670    9.7820 H    6215  WAT6215     0.2052
  18642  H2       -24.1840   -1.3890   10.5460 H    6215  WAT6215     0.2052
  18643  O        -22.3370   -5.4420    5.7390 O.3  6216  WAT6216    -0.4105
  18644  H1       -22.4470   -6.3840    5.8640 H    6216  WAT6216     0.2052
  18645  H2       -22.3400   -5.0800    6.6250 H    6216  WAT6216     0.2052
  18646  O        -24.2330   -7.2600   11.9780 O.3  6217  WAT6217    -0.4105
  18647  H1       -23.8160   -7.4740   11.1440 H    6217  WAT6217     0.2052
  18648  H2       -23.5090   -7.0030   12.5490 H    6217  WAT6217     0.2052
  18649  O        -26.7950   -9.8150    5.0950 O.3  6218  WAT6218    -0.4105
  18650  H1       -27.7220   -9.8810    5.3240 H    6218  WAT6218     0.2052
  18651  H2       -26.6420   -8.8770    4.9810 H    6218  WAT6218     0.2052
  18652  O        -26.8080  -13.5440    2.0920 O.3  6219  WAT6219    -0.4105
  18653  H1       -27.7470  -13.3820    2.1770 H    6219  WAT6219     0.2052
  18654  H2       -26.4890  -12.8250    1.5460 H    6219  WAT6219     0.2052
  18655  O        -20.2860   -8.8620   12.0700 O.3  6220  WAT6220    -0.4105
  18656  H1       -21.1140   -8.7920   11.5950 H    6220  WAT6220     0.2052
  18657  H2       -19.6910   -8.2760   11.6020 H    6220  WAT6220     0.2052
  18658  O        -22.7650   -8.2530    5.5990 O.3  6221  WAT6221    -0.4105
  18659  H1       -23.3840   -8.5910    4.9520 H    6221  WAT6221     0.2052
  18660  H2       -22.7820   -8.8970    6.3070 H    6221  WAT6221     0.2052
  18661  O        -23.3220  -12.0750   13.0160 O.3  6222  WAT6222    -0.4105
  18662  H1       -23.7350  -11.2490   13.2700 H    6222  WAT6222     0.2052
  18663  H2       -24.0550  -12.6600   12.8230 H    6222  WAT6222     0.2052
  18664  O        -22.6320   -2.0290   13.7040 O.3  6223  WAT6223    -0.4105
  18665  H1       -23.1090   -1.2220   13.5110 H    6223  WAT6223     0.2052
  18666  H2       -23.3160   -2.6810   13.8560 H    6223  WAT6223     0.2052
  18667  O        -24.5880   -9.0150    2.6060 O.3  6224  WAT6224    -0.4105
  18668  H1       -24.1490   -9.8520    2.4600 H    6224  WAT6224     0.2052
  18669  H2       -23.8750   -8.3820    2.6930 H    6224  WAT6224     0.2052
  18670  O        -26.4790   -4.0750    6.5740 O.3  6225  WAT6225    -0.4105
  18671  H1       -26.0390   -3.3320    6.1600 H    6225  WAT6225     0.2052
  18672  H2       -26.5400   -3.8320    7.4980 H    6225  WAT6225     0.2052
  18673  O        -21.0070  -17.7600    0.9200 O.3  6226  WAT6226    -0.4105
  18674  H1       -21.3190  -17.6680    1.8200 H    6226  WAT6226     0.2052
  18675  H2       -20.2450  -17.1820    0.8700 H    6226  WAT6226     0.2052
  18676  O        -19.0520   -2.2680   18.7730 O.3  6227  WAT6227    -0.4105
  18677  H1       -18.5760   -1.7890   19.4520 H    6227  WAT6227     0.2052
  18678  H2       -18.4310   -2.3360   18.0470 H    6227  WAT6227     0.2052
  18679  O        -19.6490   -5.0760   15.9330 O.3  6228  WAT6228    -0.4105
  18680  H1       -19.5230   -5.3150   15.0140 H    6228  WAT6228     0.2052
  18681  H2       -19.6070   -5.9080   16.4050 H    6228  WAT6228     0.2052
  18682  O        -25.7870   -1.3740   14.5020 O.3  6229  WAT6229    -0.4105
  18683  H1       -25.2730   -1.4630   15.3040 H    6229  WAT6229     0.2052
  18684  H2       -26.6300   -1.0280   14.7950 H    6229  WAT6229     0.2052
  18685  O        -23.8120   -1.0880    3.9310 O.3  6230  WAT6230    -0.4105
  18686  H1       -23.9720   -1.3780    4.8290 H    6230  WAT6230     0.2052
  18687  H2       -23.9770   -1.8640    3.3950 H    6230  WAT6230     0.2052
  18688  O        -24.1090   -3.5790    2.4900 O.3  6231  WAT6231    -0.4105
  18689  H1       -24.8030   -3.5820    1.8310 H    6231  WAT6231     0.2052
  18690  H2       -23.3670   -4.0030    2.0600 H    6231  WAT6231     0.2052
  18691  O        -24.5440   -1.9530    6.5650 O.3  6232  WAT6232    -0.4105
  18692  H1       -24.0880   -2.7340    6.8790 H    6232  WAT6232     0.2052
  18693  H2       -24.2050   -1.2420    7.1090 H    6232  WAT6232     0.2052
  18694  O        -19.7960  -13.0230   16.8980 O.3  6233  WAT6233    -0.4105
  18695  H1       -20.4120  -12.5150   16.3690 H    6233  WAT6233     0.2052
  18696  H2       -20.1170  -13.9230   16.8400 H    6233  WAT6233     0.2052
  18697  O        -27.7350  -14.1840   14.3640 O.3  6234  WAT6234    -0.4105
  18698  H1       -28.1970  -13.9760   15.1760 H    6234  WAT6234     0.2052
  18699  H2       -28.1370  -14.9980   14.0610 H    6234  WAT6234     0.2052
  18700  O        -22.7350  -12.9630   15.4940 O.3  6235  WAT6235    -0.4105
  18701  H1       -23.5850  -13.2620   15.8150 H    6235  WAT6235     0.2052
  18702  H2       -22.8940  -12.7190   14.5820 H    6235  WAT6235     0.2052
  18703  O        -25.6400  -11.4630   17.5930 O.3  6236  WAT6236    -0.4105
  18704  H1       -25.3140  -12.2960   17.2540 H    6236  WAT6236     0.2052
  18705  H2       -24.8520  -10.9400   17.7410 H    6236  WAT6236     0.2052
  18706  O        -28.9060  -17.4300    3.6410 O.3  6237  WAT6237    -0.4105
  18707  H1       -29.5310  -17.4340    4.3660 H    6237  WAT6237     0.2052
  18708  H2       -28.9930  -18.2970    3.2450 H    6237  WAT6237     0.2052
  18709  O        -25.0010  -11.9210    5.0880 O.3  6238  WAT6238    -0.4105
  18710  H1       -25.6000  -11.1970    4.9040 H    6238  WAT6238     0.2052
  18711  H2       -24.4530  -11.9830    4.3050 H    6238  WAT6238     0.2052
  18712  O        -29.7910  -11.0290   17.1550 O.3  6239  WAT6239    -0.4105
  18713  H1       -29.8860  -11.9690   17.0050 H    6239  WAT6239     0.2052
  18714  H2       -28.9470  -10.8070   16.7590 H    6239  WAT6239     0.2052
  18715  O        -26.3940  -13.2850    7.1180 O.3  6240  WAT6240    -0.4105
  18716  H1       -26.0010  -12.9670    6.3050 H    6240  WAT6240     0.2052
  18717  H2       -26.0330  -14.1640    7.2320 H    6240  WAT6240     0.2052
  18718  O        -28.0850  -14.5340   18.3780 O.3  6241  WAT6241    -0.4105
  18719  H1       -28.7750  -14.7270   19.0120 H    6241  WAT6241     0.2052
  18720  H2       -27.3420  -14.2510   18.9100 H    6241  WAT6241     0.2052
  18721  O        -25.8090  -10.6940   11.2130 O.3  6242  WAT6242    -0.4105
  18722  H1       -26.5410  -10.1850   11.5620 H    6242  WAT6242     0.2052
  18723  H2       -26.2060  -11.5110   10.9120 H    6242  WAT6242     0.2052
  18724  O        -29.3710  -14.0190    9.6180 O.3  6243  WAT6243    -0.4105
  18725  H1       -29.3670  -14.4600    8.7690 H    6243  WAT6243     0.2052
  18726  H2       -28.4760  -13.6970    9.7250 H    6243  WAT6243     0.2052
  18727  O        -29.3090  -13.0170    2.6090 O.3  6244  WAT6244    -0.4105
  18728  H1       -29.1880  -13.0590    3.5580 H    6244  WAT6244     0.2052
  18729  H2       -29.6940  -12.1550    2.4540 H    6244  WAT6244     0.2052
  18730  O        -25.3460  -15.2410   10.6250 O.3  6245  WAT6245    -0.4105
  18731  H1       -25.3290  -14.7900   11.4690 H    6245  WAT6245     0.2052
  18732  H2       -25.5950  -16.1400   10.8390 H    6245  WAT6245     0.2052
  18733  O        -21.9190  -17.8280   16.4640 O.3  6246  WAT6246    -0.4105
  18734  H1       -21.5950  -18.5590   16.9900 H    6246  WAT6246     0.2052
  18735  H2       -21.8840  -18.1460   15.5620 H    6246  WAT6246     0.2052
  18736  O        -29.0700   -9.9590   11.3650 O.3  6247  WAT6247    -0.4105
  18737  H1       -28.7030  -10.4330   12.1110 H    6247  WAT6247     0.2052
  18738  H2       -29.2600   -9.0840   11.7060 H    6247  WAT6247     0.2052
  18739  O        -21.9930   -7.7150   10.0730 O.3  6248  WAT6248    -0.4105
  18740  H1       -21.2730   -7.2190    9.6820 H    6248  WAT6248     0.2052
  18741  H2       -22.1950   -8.3930    9.4280 H    6248  WAT6248     0.2052
  18742  O        -26.5320  -16.3210    4.2150 O.3  6249  WAT6249    -0.4105
  18743  H1       -27.3460  -16.8200    4.1400 H    6249  WAT6249     0.2052
  18744  H2       -26.7260  -15.4810    3.7990 H    6249  WAT6249     0.2052
  18745  O        -26.6110   -7.6440   15.9590 O.3  6250  WAT6250    -0.4105
  18746  H1       -26.6780   -8.5650   15.7050 H    6250  WAT6250     0.2052
  18747  H2       -27.2410   -7.5470   16.6740 H    6250  WAT6250     0.2052
  18748  O        -23.8180  -11.9490    2.5120 O.3  6251  WAT6251    -0.4105
  18749  H1       -22.9300  -11.6380    2.3370 H    6251  WAT6251     0.2052
  18750  H2       -23.8470  -12.8220    2.1200 H    6251  WAT6251     0.2052
  18751  O        -27.8210   -5.7770    3.1910 O.3  6252  WAT6252    -0.4105
  18752  H1       -27.4800   -5.0330    2.6950 H    6252  WAT6252     0.2052
  18753  H2       -28.6500   -5.4640    3.5530 H    6252  WAT6252     0.2052
  18754  O        -26.6800   -4.8220   15.7100 O.3  6253  WAT6253    -0.4105
  18755  H1       -26.6650   -5.7540   15.4920 H    6253  WAT6253     0.2052
  18756  H2       -27.3870   -4.7360   16.3490 H    6253  WAT6253     0.2052
  18757  O        -21.5460  -10.6380    1.9800 O.3  6254  WAT6254    -0.4105
  18758  H1       -21.6300  -10.2070    1.1290 H    6254  WAT6254     0.2052
  18759  H2       -20.8270  -10.1780    2.4120 H    6254  WAT6254     0.2052
  18760  O        -20.4690   -8.1810   15.0570 O.3  6255  WAT6255    -0.4105
  18761  H1       -21.1940   -7.5880   14.8600 H    6255  WAT6255     0.2052
  18762  H2       -19.9410   -8.1890   14.2580 H    6255  WAT6255     0.2052
  18763  O        -20.5170   -3.7840    4.7080 O.3  6256  WAT6256    -0.4105
  18764  H1       -21.1600   -4.4380    4.9820 H    6256  WAT6256     0.2052
  18765  H2       -20.9040   -3.3780    3.9320 H    6256  WAT6256     0.2052
  18766  O        -24.9390   -6.4550    8.5550 O.3  6257  WAT6257    -0.4105
  18767  H1       -24.5860   -7.0530    7.8950 H    6257  WAT6257     0.2052
  18768  H2       -25.8230   -6.7810    8.7260 H    6257  WAT6257     0.2052
  18769  O        -28.8520   -5.6960    5.9620 O.3  6258  WAT6258    -0.4105
  18770  H1       -28.1650   -5.1490    6.3430 H    6258  WAT6258     0.2052
  18771  H2       -29.6390   -5.1510    5.9970 H    6258  WAT6258     0.2052
  18772  O        -29.5500   -8.6910    5.5750 O.3  6259  WAT6259    -0.4105
  18773  H1       -29.0930   -7.8800    5.8010 H    6259  WAT6259     0.2052
  18774  H2       -29.9010   -9.0090    6.4060 H    6259  WAT6259     0.2052
  18775  O        -27.2460   -3.1800   12.8040 O.3  6260  WAT6260    -0.4105
  18776  H1       -26.6020   -2.9740   13.4810 H    6260  WAT6260     0.2052
  18777  H2       -26.8830   -3.9410   12.3510 H    6260  WAT6260     0.2052
  18778  O        -25.9730   -5.1770   11.5220 O.3  6261  WAT6261    -0.4105
  18779  H1       -25.3310   -5.8780   11.6350 H    6261  WAT6261     0.2052
  18780  H2       -25.4480   -4.3970   11.3410 H    6261  WAT6261     0.2052
  18781  O        -22.1280   -4.8920    1.2460 O.3  6262  WAT6262    -0.4105
  18782  H1       -22.3540   -5.6090    1.8380 H    6262  WAT6262     0.2052
  18783  H2       -22.5180   -5.1410    0.4080 H    6262  WAT6262     0.2052
  18784  O        -24.1990   -4.3780   14.7250 O.3  6263  WAT6263    -0.4105
  18785  H1       -23.8640   -3.7910   15.4030 H    6263  WAT6263     0.2052
  18786  H2       -25.1190   -4.5080   14.9550 H    6263  WAT6263     0.2052
  18787  O        -22.5460   -6.9750    2.9070 O.3  6264  WAT6264    -0.4105
  18788  H1       -22.8340   -6.5140    3.6950 H    6264  WAT6264     0.2052
  18789  H2       -21.7510   -7.4350    3.1750 H    6264  WAT6264     0.2052
  18790  O        -28.3710   -4.3280   17.8940 O.3  6265  WAT6265    -0.4105
  18791  H1       -28.6910   -5.0480   18.4390 H    6265  WAT6265     0.2052
  18792  H2       -29.0450   -3.6530   17.9680 H    6265  WAT6265     0.2052
  18793  O        -25.1550  -14.0960   13.2580 O.3  6266  WAT6266    -0.4105
  18794  H1       -24.7870  -14.9160   13.5860 H    6266  WAT6266     0.2052
  18795  H2       -26.0150  -14.0360   13.6730 H    6266  WAT6266     0.2052
  18796  O        -21.7890  -15.1400    4.0660 O.3  6267  WAT6267    -0.4105
  18797  H1       -22.4180  -15.0360    3.3520 H    6267  WAT6267     0.2052
  18798  H2       -22.2840  -14.9200    4.8560 H    6267  WAT6267     0.2052
  18799  O        -27.3430   -3.4200    1.5000 O.3  6268  WAT6268    -0.4105
  18800  H1       -27.2420   -3.6230    0.5700 H    6268  WAT6268     0.2052
  18801  H2       -28.2430   -3.6740    1.7050 H    6268  WAT6268     0.2052
  18802  O        -28.1950  -11.4420   13.4820 O.3  6269  WAT6269    -0.4105
  18803  H1       -27.6970  -10.9670   14.1470 H    6269  WAT6269     0.2052
  18804  H2       -28.0530  -12.3660   13.6890 H    6269  WAT6269     0.2052
  18805  O        -25.7890  -16.1360    6.9220 O.3  6270  WAT6270    -0.4105
  18806  H1       -25.9120  -16.1180    5.9730 H    6270  WAT6270     0.2052
  18807  H2       -24.8410  -16.0890    7.0420 H    6270  WAT6270     0.2052
  18808  O        -28.7010   -0.9010    6.1950 O.3  6271  WAT6271    -0.4105
  18809  H1       -28.4470   -0.9390    5.2730 H    6271  WAT6271     0.2052
  18810  H2       -29.6500   -1.0280    6.1870 H    6271  WAT6271     0.2052
  18811  O        -20.9880  -15.2250   14.3240 O.3  6272  WAT6272    -0.4105
  18812  H1       -21.4910  -14.4850   14.6640 H    6272  WAT6272     0.2052
  18813  H2       -20.1730  -14.8370   14.0080 H    6272  WAT6272     0.2052
  18814  O        -22.6960   -9.9820    7.7700 O.3  6273  WAT6273    -0.4105
  18815  H1       -23.6370   -9.9670    7.9450 H    6273  WAT6273     0.2052
  18816  H2       -22.3820  -10.7680    8.2170 H    6273  WAT6273     0.2052
  18817  O        -20.6940   -2.8110    9.4460 O.3  6274  WAT6274    -0.4105
  18818  H1       -20.5690   -1.9880    9.9180 H    6274  WAT6274     0.2052
  18819  H2       -19.8270   -3.0220    9.0980 H    6274  WAT6274     0.2052
  18820  O        -25.3800   -5.4250   18.2540 O.3  6275  WAT6275    -0.4105
  18821  H1       -25.9860   -5.4020   17.5130 H    6275  WAT6275     0.2052
  18822  H2       -25.6840   -6.1570   18.7900 H    6275  WAT6275     0.2052
  18823  O        -23.9500   -1.6970   16.8650 O.3  6276  WAT6276    -0.4105
  18824  H1       -22.9970   -1.7810   16.8150 H    6276  WAT6276     0.2052
  18825  H2       -24.0970   -1.0330   17.5380 H    6276  WAT6276     0.2052
  18826  O        -21.0590   -2.3180    2.3640 O.3  6277  WAT6277    -0.4105
  18827  H1       -21.3440   -2.7310    1.5490 H    6277  WAT6277     0.2052
  18828  H2       -21.2570   -1.3890    2.2440 H    6277  WAT6277     0.2052
  18829  O        -29.5940   -6.3240    0.8040 O.3  6278  WAT6278    -0.4105
  18830  H1       -29.6990   -6.9390    1.5310 H    6278  WAT6278     0.2052
  18831  H2       -29.7610   -6.8480    0.0210 H    6278  WAT6278     0.2052
  18832  O        -26.3540   -7.2620    1.4090 O.3  6279  WAT6279    -0.4105
  18833  H1       -26.9030   -6.8150    2.0530 H    6279  WAT6279     0.2052
  18834  H2       -25.7320   -7.7670    1.9320 H    6279  WAT6279     0.2052
  18835  O        -22.3000   -5.9080   17.3410 O.3  6280  WAT6280    -0.4105
  18836  H1       -21.5590   -5.5710   16.8380 H    6280  WAT6280     0.2052
  18837  H2       -23.0630   -5.7390   16.7880 H    6280  WAT6280     0.2052
  18838  O        -28.1730   -9.2800    0.5530 O.3  6281  WAT6281    -0.4105
  18839  H1       -27.6530   -9.9950    0.1870 H    6281  WAT6281     0.2052
  18840  H2       -27.5260   -8.6410    0.8530 H    6281  WAT6281     0.2052
  18841  O        -23.6260   -7.8570   15.8760 O.3  6282  WAT6282    -0.4105
  18842  H1       -23.2110   -7.7020   16.7250 H    6282  WAT6282     0.2052
  18843  H2       -24.5600   -7.7310   16.0390 H    6282  WAT6282     0.2052
  18844  O        -23.1530  -10.5170   17.8800 O.3  6283  WAT6283    -0.4105
  18845  H1       -22.5710  -11.2720   17.7920 H    6283  WAT6283     0.2052
  18846  H2       -22.9770   -9.9860   17.1030 H    6283  WAT6283     0.2052
  18847  O        -29.2700  -16.8000   13.2250 O.3  6284  WAT6284    -0.4105
  18848  H1       -29.7180  -16.7780   12.3790 H    6284  WAT6284     0.2052
  18849  H2       -29.9030  -17.1980   13.8220 H    6284  WAT6284     0.2052
  18850  O        -28.8640   -7.9050   13.8460 O.3  6285  WAT6285    -0.4105
  18851  H1       -28.4450   -7.0610   13.6740 H    6285  WAT6285     0.2052
  18852  H2       -29.7830   -7.7670   13.6170 H    6285  WAT6285     0.2052
  18853  O        -26.5280  -10.1730   15.2300 O.3  6286  WAT6286    -0.4105
  18854  H1       -26.4080  -10.7690   15.9690 H    6286  WAT6286     0.2052
  18855  H2       -25.6680  -10.1360   14.8100 H    6286  WAT6286     0.2052
  18856  O        -24.1890   -9.6190   13.8060 O.3  6287  WAT6287    -0.4105
  18857  H1       -24.7150   -9.0950   13.2030 H    6287  WAT6287     0.2052
  18858  H2       -23.8460   -8.9870   14.4370 H    6287  WAT6287     0.2052
  18859  O        -24.9410  -14.0140   16.7210 O.3  6288  WAT6288    -0.4105
  18860  H1       -25.6300  -14.6760   16.6560 H    6288  WAT6288     0.2052
  18861  H2       -24.2210  -14.4600   17.1650 H    6288  WAT6288     0.2052
  18862  O        -24.3110  -17.4190    2.7800 O.3  6289  WAT6289    -0.4105
  18863  H1       -24.0310  -18.2620    3.1360 H    6289  WAT6289     0.2052
  18864  H2       -25.0850  -17.1870    3.2940 H    6289  WAT6289     0.2052
  18865  O        -28.1570   -0.3640   15.2200 O.3  6290  WAT6290    -0.4105
  18866  H1       -28.2310    0.5390   15.5280 H    6290  WAT6290     0.2052
  18867  H2       -29.0590   -0.6830   15.1930 H    6290  WAT6290     0.2052
  18868  O        -27.6090   -1.1980    2.8430 O.3  6291  WAT6291    -0.4105
  18869  H1       -26.7130   -0.8600    2.8650 H    6291  WAT6291     0.2052
  18870  H2       -27.5770   -1.9200    2.2150 H    6291  WAT6291     0.2052
  18871  O        -20.6290   -2.6680   15.5500 O.3  6292  WAT6292    -0.4105
  18872  H1       -21.2290   -2.6090   14.8060 H    6292  WAT6292     0.2052
  18873  H2       -20.5000   -3.6080   15.6790 H    6292  WAT6292     0.2052
  18874  O        -19.3890   -4.9260    0.8870 O.3  6293  WAT6293    -0.4105
  18875  H1       -20.2200   -4.8590    1.3570 H    6293  WAT6293     0.2052
  18876  H2       -19.2120   -4.0360    0.5830 H    6293  WAT6293     0.2052
  18877  O        -19.9330   -8.1810    3.3900 O.3  6294  WAT6294    -0.4105
  18878  H1       -19.1710   -7.6120    3.4960 H    6294  WAT6294     0.2052
  18879  H2       -19.9180   -8.7490    4.1610 H    6294  WAT6294     0.2052
  18880  O        -18.9270   -7.3260    8.2340 O.3  6295  WAT6295    -0.4105
  18881  H1       -18.5560   -8.1100    7.8280 H    6295  WAT6295     0.2052
  18882  H2       -18.2870   -6.6380    8.0560 H    6295  WAT6295     0.2052
  18883  O        -21.9440   -5.9430   13.6470 O.3  6296  WAT6296    -0.4105
  18884  H1       -22.7580   -5.5130   13.9100 H    6296  WAT6296     0.2052
  18885  H2       -21.5360   -5.3310   13.0340 H    6296  WAT6296     0.2052
  18886  O        -19.8810   -7.8880    0.5470 O.3  6297  WAT6297    -0.4105
  18887  H1       -19.6060   -6.9800    0.4190 H    6297  WAT6297     0.2052
  18888  H2       -20.0700   -7.9520    1.4830 H    6297  WAT6297     0.2052
  18889  O        -23.4840  -14.8640    1.8430 O.3  6298  WAT6298    -0.4105
  18890  H1       -23.0650  -15.0500    1.0020 H    6298  WAT6298     0.2052
  18891  H2       -23.7900  -15.7160    2.1530 H    6298  WAT6298     0.2052
  18892  O        -19.9850   -9.9510    5.5400 O.3  6299  WAT6299    -0.4105
  18893  H1       -20.3600  -10.7180    5.1080 H    6299  WAT6299     0.2052
  18894  H2       -20.7150   -9.5690    6.0280 H    6299  WAT6299     0.2052
  18895  O        -20.5950  -10.8040   15.1740 O.3  6300  WAT6300    -0.4105
  18896  H1       -20.8260  -11.0330   14.2740 H    6300  WAT6300     0.2052
  18897  H2       -20.3340   -9.8840   15.1290 H    6300  WAT6300     0.2052
  18898  O        -22.1560  -15.5780   17.9520 O.3  6301  WAT6301    -0.4105
  18899  H1       -21.2790  -15.5700   18.3360 H    6301  WAT6301     0.2052
  18900  H2       -22.1440  -16.3150   17.3410 H    6301  WAT6301     0.2052
  18901  O        -20.7100  -11.7250    8.8410 O.3  6302  WAT6302    -0.4105
  18902  H1       -20.1860  -12.2190    8.2100 H    6302  WAT6302     0.2052
  18903  H2       -20.1240  -11.5900    9.5860 H    6302  WAT6302     0.2052
  18904  O        -20.5310  -11.6410   12.3630 O.3  6303  WAT6303    -0.4105
  18905  H1       -21.4810  -11.6750   12.4770 H    6303  WAT6303     0.2052
  18906  H2       -20.3490  -10.7310   12.1280 H    6303  WAT6303     0.2052
  18907  O        -21.2200  -12.4680    4.7800 O.3  6304  WAT6304    -0.4105
  18908  H1       -20.7240  -12.7010    5.5650 H    6304  WAT6304     0.2052
  18909  H2       -21.4180  -13.3070    4.3640 H    6304  WAT6304     0.2052
  18910  O        -19.7910  -13.8320    7.3140 O.3  6305  WAT6305    -0.4105
  18911  H1       -19.9010  -13.9860    8.2520 H    6305  WAT6305     0.2052
  18912  H2       -19.0300  -14.3600    7.0720 H    6305  WAT6305     0.2052
  18913  O        -21.4440  -17.8930   13.7720 O.3  6306  WAT6306    -0.4105
  18914  H1       -20.8070  -17.2790   14.1380 H    6306  WAT6306     0.2052
  18915  H2       -21.2970  -17.8560   12.8270 H    6306  WAT6306     0.2052
  18916  O        -18.9020  -16.0010    0.5550 O.3  6307  WAT6307    -0.4105
  18917  H1       -17.9770  -16.1330    0.3460 H    6307  WAT6307     0.2052
  18918  H2       -18.9240  -15.9220    1.5080 H    6307  WAT6307     0.2052
  18919  O        -18.8280  -15.2300    3.1800 O.3  6308  WAT6308    -0.4105
  18920  H1       -19.6230  -15.2960    3.7100 H    6308  WAT6308     0.2052
  18921  H2       -18.6240  -14.2950    3.1690 H    6308  WAT6308     0.2052
  18922  O        -21.8860   -1.1910    7.1740 O.3  6309  WAT6309    -0.4105
  18923  H1       -21.2900   -1.5120    6.4980 H    6309  WAT6309     0.2052
  18924  H2       -21.6280   -1.6640    7.9650 H    6309  WAT6309     0.2052
  18925  O        -28.0740  -16.7400   16.6800 O.3  6310  WAT6310    -0.4105
  18926  H1       -28.1350  -16.1480   17.4290 H    6310  WAT6310     0.2052
  18927  H2       -27.1340  -16.8470   16.5350 H    6310  WAT6310     0.2052
  18928  O        -25.4370  -17.0830   16.3190 O.3  6311  WAT6311    -0.4105
  18929  H1       -24.8230  -16.7650   15.6570 H    6311  WAT6311     0.2052
  18930  H2       -24.8920  -17.5680   16.9390 H    6311  WAT6311     0.2052
  18931  O        -19.0190   -1.1840   13.7250 O.3  6312  WAT6312    -0.4105
  18932  H1       -19.5130   -0.7870   13.0080 H    6312  WAT6312     0.2052
  18933  H2       -19.6280   -1.8090   14.1190 H    6312  WAT6312     0.2052
  18934  O        -24.6960  -18.5200   12.6460 O.3  6313  WAT6313    -0.4105
  18935  H1       -25.5700  -18.1860   12.4430 H    6313  WAT6313     0.2052
  18936  H2       -24.8050  -18.9920   13.4710 H    6313  WAT6313     0.2052
  18937  O        -23.7890  -16.3130   14.0300 O.3  6314  WAT6314    -0.4105
  18938  H1       -24.1170  -17.1270   13.6500 H    6314  WAT6314     0.2052
  18939  H2       -22.8400  -16.3560   13.9070 H    6314  WAT6314     0.2052
  18940  O        -21.3350   -0.5410   11.0040 O.3  6315  WAT6315    -0.4105
  18941  H1       -21.7950    0.2100   10.6300 H    6315  WAT6315     0.2052
  18942  H2       -21.9640   -1.2610   10.9450 H    6315  WAT6315     0.2052
  18943  O        -28.1660   -1.3420   11.0060 O.3  6316  WAT6316    -0.4105
  18944  H1       -27.8780   -1.5960   10.1290 H    6316  WAT6316     0.2052
  18945  H2       -27.6540   -1.8940   11.5960 H    6316  WAT6316     0.2052
  18946  O        -26.9480  -17.6030   11.5850 O.3  6317  WAT6317    -0.4105
  18947  H1       -27.7310  -17.1280   11.8650 H    6317  WAT6317     0.2052
  18948  H2       -27.2420  -18.5070   11.4770 H    6317  WAT6317     0.2052
  18949  O        -22.3960  -16.9000    9.6300 O.3  6318  WAT6318    -0.4105
  18950  H1       -21.9550  -16.9560    8.7820 H    6318  WAT6318     0.2052
  18951  H2       -22.6650  -15.9850    9.7010 H    6318  WAT6318     0.2052
  18952  O        -20.5320  -17.2690    7.6410 O.3  6319  WAT6319    -0.4105
  18953  H1       -20.5930  -18.2130    7.4940 H    6319  WAT6319     0.2052
  18954  H2       -19.7530  -17.1610    8.1860 H    6319  WAT6319     0.2052
  18955  O        -29.0630  -15.1840    7.0970 O.3  6320  WAT6320    -0.4105
  18956  H1       -29.8750  -15.5580    6.7560 H    6320  WAT6320     0.2052
  18957  H2       -28.5590  -15.9400    7.3990 H    6320  WAT6320     0.2052
  18958  O        -24.5600  -18.5200    8.3350 O.3  6321  WAT6321    -0.4105
  18959  H1       -23.9570  -17.9480    8.8100 H    6321  WAT6321     0.2052
  18960  H2       -25.3010  -17.9560    8.1130 H    6321  WAT6321     0.2052
  18961  O        -21.4170  -18.1180    3.6090 O.3  6322  WAT6322    -0.4105
  18962  H1       -21.2220  -17.2190    3.8760 H    6322  WAT6322     0.2052
  18963  H2       -22.2040  -18.3490    4.1020 H    6322  WAT6322     0.2052
  18964  O        -28.0990   -0.4200   18.3720 O.3  6323  WAT6323    -0.4105
  18965  H1       -27.1720   -0.6560   18.4160 H    6323  WAT6323     0.2052
  18966  H2       -28.1140    0.4070   17.8910 H    6323  WAT6323     0.2052
  18967  O        -19.8640   -0.8780    5.3700 O.3  6324  WAT6324    -0.4105
  18968  H1       -19.6890   -1.5640    4.7260 H    6324  WAT6324     0.2052
  18969  H2       -20.5620   -0.3530    4.9770 H    6324  WAT6324     0.2052
  18970  O        -24.3110  -18.3400   18.7150 O.3  6325  WAT6325    -0.4105
  18971  H1       -24.4240  -18.0210   19.6100 H    6325  WAT6325     0.2052
  18972  H2       -23.4940  -17.9390   18.4180 H    6325  WAT6325     0.2052
  18973  O        -21.5310   -1.1930   18.1960 O.3  6326  WAT6326    -0.4105
  18974  H1       -20.7380   -1.6880   17.9890 H    6326  WAT6326     0.2052
  18975  H2       -21.2380   -0.5140   18.8040 H    6326  WAT6326     0.2052
  18976  O        -25.4050  -10.3210  -10.9220 O.3  6327  WAT6327    -0.4105
  18977  H1       -25.4860  -11.2360  -11.1930 H    6327  WAT6327     0.2052
  18978  H2       -25.8190   -9.8240  -11.6280 H    6327  WAT6327     0.2052
  18979  O        -27.2730   -8.5430   -9.0410 O.3  6328  WAT6328    -0.4105
  18980  H1       -28.0490   -9.0230   -8.7510 H    6328  WAT6328     0.2052
  18981  H2       -26.6220   -9.2230   -9.2150 H    6328  WAT6328     0.2052
  18982  O        -23.2520   -4.1370  -10.2610 O.3  6329  WAT6329    -0.4105
  18983  H1       -23.7140   -4.9080   -9.9320 H    6329  WAT6329     0.2052
  18984  H2       -22.4400   -4.1110   -9.7560 H    6329  WAT6329     0.2052
  18985  O        -27.0260   -1.8510  -10.6410 O.3  6330  WAT6330    -0.4105
  18986  H1       -27.6450   -1.3960  -11.2110 H    6330  WAT6330     0.2052
  18987  H2       -26.1710   -1.6960  -11.0420 H    6330  WAT6330     0.2052
  18988  O        -27.8320   -5.8670   -9.0340 O.3  6331  WAT6331    -0.4105
  18989  H1       -27.9010   -6.8080   -9.1950 H    6331  WAT6331     0.2052
  18990  H2       -27.0700   -5.7770   -8.4620 H    6331  WAT6331     0.2052
  18991  O        -26.8020  -13.0600   -8.8070 O.3  6332  WAT6332    -0.4105
  18992  H1       -26.4250  -13.9330   -8.9200 H    6332  WAT6332     0.2052
  18993  H2       -26.9000  -12.7250   -9.6980 H    6332  WAT6332     0.2052
  18994  O        -23.0190  -15.5650  -11.8740 O.3  6333  WAT6333    -0.4105
  18995  H1       -22.1980  -16.0560  -11.8320 H    6333  WAT6333     0.2052
  18996  H2       -22.9860  -14.9760  -11.1210 H    6333  WAT6333     0.2052
  18997  O        -18.7290  -13.5490   -5.3100 O.3  6334  WAT6334    -0.4105
  18998  H1       -19.4340  -13.1600   -5.8280 H    6334  WAT6334     0.2052
  18999  H2       -18.4640  -12.8540   -4.7080 H    6334  WAT6334     0.2052
  19000  O        -26.1600   -6.9670  -13.2470 O.3  6335  WAT6335    -0.4105
  19001  H1       -26.7780   -6.5020  -13.8110 H    6335  WAT6335     0.2052
  19002  H2       -25.6470   -6.2750  -12.8310 H    6335  WAT6335     0.2052
  19003  O        -22.7830  -13.6250   -9.1010 O.3  6336  WAT6336    -0.4105
  19004  H1       -23.4880  -13.3370   -8.5210 H    6336  WAT6336     0.2052
  19005  H2       -22.4220  -12.8150   -9.4620 H    6336  WAT6336     0.2052
  19006  O        -21.1670   -4.0080   -6.8390 O.3  6337  WAT6337    -0.4105
  19007  H1       -21.8510   -3.3380   -6.8470 H    6337  WAT6337     0.2052
  19008  H2       -20.6280   -3.8100   -7.6040 H    6337  WAT6337     0.2052
  19009  O        -19.7150  -14.1800   -8.7110 O.3  6338  WAT6338    -0.4105
  19010  H1       -20.6620  -14.1460   -8.5790 H    6338  WAT6338     0.2052
  19011  H2       -19.3900  -13.3660   -8.3260 H    6338  WAT6338     0.2052
  19012  O        -23.6310   -2.1630   -8.1240 O.3  6339  WAT6339    -0.4105
  19013  H1       -23.6180   -2.5670   -8.9920 H    6339  WAT6339     0.2052
  19014  H2       -24.1840   -1.3890   -8.2280 H    6339  WAT6339     0.2052
  19015  O        -22.3370   -5.4420  -13.0350 O.3  6340  WAT6340    -0.4105
  19016  H1       -22.4470   -6.3840  -12.9100 H    6340  WAT6340     0.2052
  19017  H2       -22.3400   -5.0800  -12.1490 H    6340  WAT6340     0.2052
  19018  O        -24.2330   -7.2600   -6.7960 O.3  6341  WAT6341    -0.4105
  19019  H1       -23.8160   -7.4740   -7.6310 H    6341  WAT6341     0.2052
  19020  H2       -23.5090   -7.0030   -6.2250 H    6341  WAT6341     0.2052
  19021  O        -26.7950   -9.8150  -13.6790 O.3  6342  WAT6342    -0.4105
  19022  H1       -27.7220   -9.8810  -13.4500 H    6342  WAT6342     0.2052
  19023  H2       -26.6420   -8.8770  -13.7930 H    6342  WAT6342     0.2052
  19024  O        -26.8080  -13.5440  -16.6820 O.3  6343  WAT6343    -0.4105
  19025  H1       -27.7470  -13.3820  -16.5970 H    6343  WAT6343     0.2052
  19026  H2       -26.4890  -12.8250  -17.2290 H    6343  WAT6343     0.2052
  19027  O        -20.2860   -8.8620   -6.7040 O.3  6344  WAT6344    -0.4105
  19028  H1       -21.1140   -8.7920   -7.1790 H    6344  WAT6344     0.2052
  19029  H2       -19.6910   -8.2760   -7.1730 H    6344  WAT6344     0.2052
  19030  O        -22.7650   -8.2530  -13.1750 O.3  6345  WAT6345    -0.4105
  19031  H1       -23.3840   -8.5910  -13.8230 H    6345  WAT6345     0.2052
  19032  H2       -22.7820   -8.8970  -12.4670 H    6345  WAT6345     0.2052
  19033  O        -23.3220  -12.0750   -5.7590 O.3  6346  WAT6346    -0.4105
  19034  H1       -23.7350  -11.2490   -5.5050 H    6346  WAT6346     0.2052
  19035  H2       -24.0550  -12.6600   -5.9510 H    6346  WAT6346     0.2052
  19036  O        -22.6320   -2.0290   -5.0710 O.3  6347  WAT6347    -0.4105
  19037  H1       -23.1090   -1.2220   -5.2630 H    6347  WAT6347     0.2052
  19038  H2       -23.3160   -2.6810   -4.9180 H    6347  WAT6347     0.2052
  19039  O        -24.5880   -9.0150  -16.1680 O.3  6348  WAT6348    -0.4105
  19040  H1       -24.1490   -9.8520  -16.3140 H    6348  WAT6348     0.2052
  19041  H2       -23.8750   -8.3820  -16.0820 H    6348  WAT6348     0.2052
  19042  O        -26.4790   -4.0750  -12.2000 O.3  6349  WAT6349    -0.4105
  19043  H1       -26.0390   -3.3320  -12.6140 H    6349  WAT6349     0.2052
  19044  H2       -26.5400   -3.8320  -11.2760 H    6349  WAT6349     0.2052
  19045  O        -21.0070  -17.7600  -17.8540 O.3  6350  WAT6350    -0.4105
  19046  H1       -21.3190  -17.6680  -16.9540 H    6350  WAT6350     0.2052
  19047  H2       -20.2450  -17.1820  -17.9040 H    6350  WAT6350     0.2052
  19048  O        -19.0520   -2.2680   -0.0020 O.3  6351  WAT6351    -0.4105
  19049  H1       -18.5760   -1.7890    0.6770 H    6351  WAT6351     0.2052
  19050  H2       -18.4310   -2.3360   -0.7270 H    6351  WAT6351     0.2052
  19051  O        -19.6490   -5.0760   -2.8420 O.3  6352  WAT6352    -0.4105
  19052  H1       -19.5230   -5.3150   -3.7600 H    6352  WAT6352     0.2052
  19053  H2       -19.6070   -5.9080   -2.3690 H    6352  WAT6352     0.2052
  19054  O        -25.7870   -1.3740   -4.2720 O.3  6353  WAT6353    -0.4105
  19055  H1       -25.2730   -1.4630   -3.4700 H    6353  WAT6353     0.2052
  19056  H2       -26.6300   -1.0280   -3.9790 H    6353  WAT6353     0.2052
  19057  O        -23.8120   -1.0880  -14.8440 O.3  6354  WAT6354    -0.4105
  19058  H1       -23.9720   -1.3780  -13.9460 H    6354  WAT6354     0.2052
  19059  H2       -23.9770   -1.8640  -15.3790 H    6354  WAT6354     0.2052
  19060  O        -24.1090   -3.5790  -16.2840 O.3  6355  WAT6355    -0.4105
  19061  H1       -24.8030   -3.5820  -16.9440 H    6355  WAT6355     0.2052
  19062  H2       -23.3670   -4.0030  -16.7140 H    6355  WAT6355     0.2052
  19063  O        -24.5440   -1.9530  -12.2090 O.3  6356  WAT6356    -0.4105
  19064  H1       -24.0880   -2.7340  -11.8950 H    6356  WAT6356     0.2052
  19065  H2       -24.2050   -1.2420  -11.6650 H    6356  WAT6356     0.2052
  19066  O        -19.7960  -13.0230   -1.8770 O.3  6357  WAT6357    -0.4105
  19067  H1       -20.4120  -12.5150   -2.4050 H    6357  WAT6357     0.2052
  19068  H2       -20.1170  -13.9230   -1.9340 H    6357  WAT6357     0.2052
  19069  O        -27.7350  -14.1840   -4.4100 O.3  6358  WAT6358    -0.4105
  19070  H1       -28.1970  -13.9760   -3.5980 H    6358  WAT6358     0.2052
  19071  H2       -28.1370  -14.9980   -4.7130 H    6358  WAT6358     0.2052
  19072  O        -22.7350  -12.9630   -3.2810 O.3  6359  WAT6359    -0.4105
  19073  H1       -23.5850  -13.2620   -2.9600 H    6359  WAT6359     0.2052
  19074  H2       -22.8940  -12.7190   -4.1920 H    6359  WAT6359     0.2052
  19075  O        -25.6400  -11.4630   -1.1810 O.3  6360  WAT6360    -0.4105
  19076  H1       -25.3140  -12.2960   -1.5210 H    6360  WAT6360     0.2052
  19077  H2       -24.8520  -10.9400   -1.0330 H    6360  WAT6360     0.2052
  19078  O        -28.9060  -17.4300  -15.1330 O.3  6361  WAT6361    -0.4105
  19079  H1       -29.5310  -17.4340  -14.4080 H    6361  WAT6361     0.2052
  19080  H2       -28.9930  -18.2970  -15.5300 H    6361  WAT6361     0.2052
  19081  O        -25.0010  -11.9210  -13.6870 O.3  6362  WAT6362    -0.4105
  19082  H1       -25.6000  -11.1970  -13.8700 H    6362  WAT6362     0.2052
  19083  H2       -24.4530  -11.9830  -14.4690 H    6362  WAT6362     0.2052
  19084  O        -29.7910  -11.0290   -1.6200 O.3  6363  WAT6363    -0.4105
  19085  H1       -29.8860  -11.9690   -1.7700 H    6363  WAT6363     0.2052
  19086  H2       -28.9470  -10.8070   -2.0150 H    6363  WAT6363     0.2052
  19087  O        -26.3940  -13.2850  -11.6560 O.3  6364  WAT6364    -0.4105
  19088  H1       -26.0010  -12.9670  -12.4700 H    6364  WAT6364     0.2052
  19089  H2       -26.0330  -14.1640  -11.5420 H    6364  WAT6364     0.2052
  19090  O        -28.0850  -14.5340   -0.3970 O.3  6365  WAT6365    -0.4105
  19091  H1       -28.7750  -14.7270    0.2380 H    6365  WAT6365     0.2052
  19092  H2       -27.3420  -14.2510    0.1360 H    6365  WAT6365     0.2052
  19093  O        -25.8090  -10.6940   -7.5610 O.3  6366  WAT6366    -0.4105
  19094  H1       -26.5410  -10.1850   -7.2120 H    6366  WAT6366     0.2052
  19095  H2       -26.2060  -11.5110   -7.8620 H    6366  WAT6366     0.2052
  19096  O        -29.3710  -14.0190   -9.1560 O.3  6367  WAT6367    -0.4105
  19097  H1       -29.3670  -14.4600  -10.0060 H    6367  WAT6367     0.2052
  19098  H2       -28.4760  -13.6970   -9.0490 H    6367  WAT6367     0.2052
  19099  O        -29.3090  -13.0170  -16.1650 O.3  6368  WAT6368    -0.4105
  19100  H1       -29.1880  -13.0590  -15.2170 H    6368  WAT6368     0.2052
  19101  H2       -29.6940  -12.1550  -16.3210 H    6368  WAT6368     0.2052
  19102  O        -25.3460  -15.2410   -8.1490 O.3  6369  WAT6369    -0.4105
  19103  H1       -25.3290  -14.7900   -7.3050 H    6369  WAT6369     0.2052
  19104  H2       -25.5950  -16.1400   -7.9360 H    6369  WAT6369     0.2052
  19105  O        -21.9190  -17.8280   -2.3100 O.3  6370  WAT6370    -0.4105
  19106  H1       -21.5950  -18.5590   -1.7850 H    6370  WAT6370     0.2052
  19107  H2       -21.8840  -18.1460   -3.2120 H    6370  WAT6370     0.2052
  19108  O        -29.0700   -9.9590   -7.4100 O.3  6371  WAT6371    -0.4105
  19109  H1       -28.7030  -10.4330   -6.6630 H    6371  WAT6371     0.2052
  19110  H2       -29.2600   -9.0840   -7.0690 H    6371  WAT6371     0.2052
  19111  O        -21.9930   -7.7150   -8.7020 O.3  6372  WAT6372    -0.4105
  19112  H1       -21.2730   -7.2190   -9.0920 H    6372  WAT6372     0.2052
  19113  H2       -22.1950   -8.3930   -9.3460 H    6372  WAT6372     0.2052
  19114  O        -26.5320  -16.3210  -14.5590 O.3  6373  WAT6373    -0.4105
  19115  H1       -27.3460  -16.8200  -14.6340 H    6373  WAT6373     0.2052
  19116  H2       -26.7260  -15.4810  -14.9750 H    6373  WAT6373     0.2052
  19117  O        -26.6110   -7.6440   -2.8150 O.3  6374  WAT6374    -0.4105
  19118  H1       -26.6780   -8.5650   -3.0690 H    6374  WAT6374     0.2052
  19119  H2       -27.2410   -7.5470   -2.1000 H    6374  WAT6374     0.2052
  19120  O        -23.8180  -11.9490  -16.2630 O.3  6375  WAT6375    -0.4105
  19121  H1       -22.9300  -11.6380  -16.4380 H    6375  WAT6375     0.2052
  19122  H2       -23.8470  -12.8220  -16.6550 H    6375  WAT6375     0.2052
  19123  O        -27.8210   -5.7770  -15.5840 O.3  6376  WAT6376    -0.4105
  19124  H1       -27.4800   -5.0330  -16.0790 H    6376  WAT6376     0.2052
  19125  H2       -28.6500   -5.4640  -15.2210 H    6376  WAT6376     0.2052
  19126  O        -26.6800   -4.8220   -3.0650 O.3  6377  WAT6377    -0.4105
  19127  H1       -26.6650   -5.7540   -3.2830 H    6377  WAT6377     0.2052
  19128  H2       -27.3870   -4.7360   -2.4260 H    6377  WAT6377     0.2052
  19129  O        -21.5460  -10.6380  -16.7950 O.3  6378  WAT6378    -0.4105
  19130  H1       -21.6300  -10.2070  -17.6450 H    6378  WAT6378     0.2052
  19131  H2       -20.8270  -10.1780  -16.3620 H    6378  WAT6378     0.2052
  19132  O        -20.4690   -8.1810   -3.7180 O.3  6379  WAT6379    -0.4105
  19133  H1       -21.1940   -7.5880   -3.9150 H    6379  WAT6379     0.2052
  19134  H2       -19.9410   -8.1890   -4.5160 H    6379  WAT6379     0.2052
  19135  O        -20.5170   -3.7840  -14.0660 O.3  6380  WAT6380    -0.4105
  19136  H1       -21.1600   -4.4380  -13.7920 H    6380  WAT6380     0.2052
  19137  H2       -20.9040   -3.3780  -14.8420 H    6380  WAT6380     0.2052
  19138  O        -24.9390   -6.4550  -10.2190 O.3  6381  WAT6381    -0.4105
  19139  H1       -24.5860   -7.0530  -10.8790 H    6381  WAT6381     0.2052
  19140  H2       -25.8230   -6.7810  -10.0480 H    6381  WAT6381     0.2052
  19141  O        -28.8520   -5.6960  -12.8120 O.3  6382  WAT6382    -0.4105
  19142  H1       -28.1650   -5.1490  -12.4310 H    6382  WAT6382     0.2052
  19143  H2       -29.6390   -5.1510  -12.7770 H    6382  WAT6382     0.2052
  19144  O        -29.5500   -8.6910  -13.2000 O.3  6383  WAT6383    -0.4105
  19145  H1       -29.0930   -7.8800  -12.9740 H    6383  WAT6383     0.2052
  19146  H2       -29.9010   -9.0090  -12.3680 H    6383  WAT6383     0.2052
  19147  O        -27.2460   -3.1800   -5.9700 O.3  6384  WAT6384    -0.4105
  19148  H1       -26.6020   -2.9740   -5.2930 H    6384  WAT6384     0.2052
  19149  H2       -26.8830   -3.9410   -6.4230 H    6384  WAT6384     0.2052
  19150  O        -25.9730   -5.1770   -7.2530 O.3  6385  WAT6385    -0.4105
  19151  H1       -25.3310   -5.8780   -7.1400 H    6385  WAT6385     0.2052
  19152  H2       -25.4480   -4.3970   -7.4330 H    6385  WAT6385     0.2052
  19153  O        -22.1280   -4.8920  -17.5290 O.3  6386  WAT6386    -0.4105
  19154  H1       -22.3540   -5.6090  -16.9360 H    6386  WAT6386     0.2052
  19155  H2       -22.5180   -5.1410  -18.3670 H    6386  WAT6386     0.2052
  19156  O        -24.1990   -4.3780   -4.0490 O.3  6387  WAT6387    -0.4105
  19157  H1       -23.8640   -3.7910   -3.3710 H    6387  WAT6387     0.2052
  19158  H2       -25.1190   -4.5080   -3.8190 H    6387  WAT6387     0.2052
  19159  O        -22.5460   -6.9750  -15.8670 O.3  6388  WAT6388    -0.4105
  19160  H1       -22.8340   -6.5140  -15.0800 H    6388  WAT6388     0.2052
  19161  H2       -21.7510   -7.4350  -15.5990 H    6388  WAT6388     0.2052
  19162  O        -28.3710   -4.3280   -0.8800 O.3  6389  WAT6389    -0.4105
  19163  H1       -28.6910   -5.0480   -0.3360 H    6389  WAT6389     0.2052
  19164  H2       -29.0450   -3.6530   -0.8070 H    6389  WAT6389     0.2052
  19165  O        -25.1550  -14.0960   -5.5170 O.3  6390  WAT6390    -0.4105
  19166  H1       -24.7870  -14.9160   -5.1890 H    6390  WAT6390     0.2052
  19167  H2       -26.0150  -14.0360   -5.1010 H    6390  WAT6390     0.2052
  19168  O        -21.7890  -15.1400  -14.7080 O.3  6391  WAT6391    -0.4105
  19169  H1       -22.4180  -15.0360  -15.4220 H    6391  WAT6391     0.2052
  19170  H2       -22.2840  -14.9200  -13.9180 H    6391  WAT6391     0.2052
  19171  O        -27.3430   -3.4200  -17.2740 O.3  6392  WAT6392    -0.4105
  19172  H1       -27.2420   -3.6230  -18.2040 H    6392  WAT6392     0.2052
  19173  H2       -28.2430   -3.6740  -17.0700 H    6392  WAT6392     0.2052
  19174  O        -28.1950  -11.4420   -5.2930 O.3  6393  WAT6393    -0.4105
  19175  H1       -27.6970  -10.9670   -4.6280 H    6393  WAT6393     0.2052
  19176  H2       -28.0530  -12.3660   -5.0860 H    6393  WAT6393     0.2052
  19177  O        -25.7890  -16.1360  -11.8530 O.3  6394  WAT6394    -0.4105
  19178  H1       -25.9120  -16.1180  -12.8020 H    6394  WAT6394     0.2052
  19179  H2       -24.8410  -16.0890  -11.7330 H    6394  WAT6394     0.2052
  19180  O        -28.7010   -0.9010  -12.5800 O.3  6395  WAT6395    -0.4105
  19181  H1       -28.4470   -0.9390  -13.5020 H    6395  WAT6395     0.2052
  19182  H2       -29.6500   -1.0280  -12.5870 H    6395  WAT6395     0.2052
  19183  O        -20.9880  -15.2250   -4.4500 O.3  6396  WAT6396    -0.4105
  19184  H1       -21.4910  -14.4850   -4.1110 H    6396  WAT6396     0.2052
  19185  H2       -20.1730  -14.8370   -4.7660 H    6396  WAT6396     0.2052
  19186  O        -22.6960   -9.9820  -11.0040 O.3  6397  WAT6397    -0.4105
  19187  H1       -23.6370   -9.9670  -10.8290 H    6397  WAT6397     0.2052
  19188  H2       -22.3820  -10.7680  -10.5580 H    6397  WAT6397     0.2052
  19189  O        -20.6940   -2.8110   -9.3280 O.3  6398  WAT6398    -0.4105
  19190  H1       -20.5690   -1.9880   -8.8560 H    6398  WAT6398     0.2052
  19191  H2       -19.8270   -3.0220   -9.6760 H    6398  WAT6398     0.2052
  19192  O        -25.3800   -5.4250   -0.5210 O.3  6399  WAT6399    -0.4105
  19193  H1       -25.9860   -5.4020   -1.2610 H    6399  WAT6399     0.2052
  19194  H2       -25.6840   -6.1570    0.0160 H    6399  WAT6399     0.2052
  19195  O        -23.9500   -1.6970   -1.9100 O.3  6400  WAT6400    -0.4105
  19196  H1       -22.9970   -1.7810   -1.9600 H    6400  WAT6400     0.2052
  19197  H2       -24.0970   -1.0330   -1.2360 H    6400  WAT6400     0.2052
  19198  O        -21.0590   -2.3180  -16.4100 O.3  6401  WAT6401    -0.4105
  19199  H1       -21.3440   -2.7310  -17.2250 H    6401  WAT6401     0.2052
  19200  H2       -21.2570   -1.3890  -16.5300 H    6401  WAT6401     0.2052
  19201  O        -29.5940   -6.3240  -17.9700 O.3  6402  WAT6402    -0.4105
  19202  H1       -29.6990   -6.9390  -17.2440 H    6402  WAT6402     0.2052
  19203  H2       -29.7610   -6.8480  -18.7540 H    6402  WAT6402     0.2052
  19204  O        -26.3540   -7.2620  -17.3660 O.3  6403  WAT6403    -0.4105
  19205  H1       -26.9030   -6.8150  -16.7210 H    6403  WAT6403     0.2052
  19206  H2       -25.7320   -7.7670  -16.8420 H    6403  WAT6403     0.2052
  19207  O        -22.3000   -5.9080   -1.4340 O.3  6404  WAT6404    -0.4105
  19208  H1       -21.5590   -5.5710   -1.9370 H    6404  WAT6404     0.2052
  19209  H2       -23.0630   -5.7390   -1.9870 H    6404  WAT6404     0.2052
  19210  O        -28.1730   -9.2800  -18.2210 O.3  6405  WAT6405    -0.4105
  19211  H1       -27.6530   -9.9950  -18.5870 H    6405  WAT6405     0.2052
  19212  H2       -27.5260   -8.6410  -17.9210 H    6405  WAT6405     0.2052
  19213  O        -23.6260   -7.8570   -2.8980 O.3  6406  WAT6406    -0.4105
  19214  H1       -23.2110   -7.7020   -2.0490 H    6406  WAT6406     0.2052
  19215  H2       -24.5600   -7.7310   -2.7350 H    6406  WAT6406     0.2052
  19216  O        -23.1530  -10.5170   -0.8940 O.3  6407  WAT6407    -0.4105
  19217  H1       -22.5710  -11.2720   -0.9820 H    6407  WAT6407     0.2052
  19218  H2       -22.9770   -9.9860   -1.6710 H    6407  WAT6407     0.2052
  19219  O        -29.2700  -16.8000   -5.5500 O.3  6408  WAT6408    -0.4105
  19220  H1       -29.7180  -16.7780   -6.3950 H    6408  WAT6408     0.2052
  19221  H2       -29.9030  -17.1980   -4.9530 H    6408  WAT6408     0.2052
  19222  O        -28.8640   -7.9050   -4.9280 O.3  6409  WAT6409    -0.4105
  19223  H1       -28.4450   -7.0610   -5.1010 H    6409  WAT6409     0.2052
  19224  H2       -29.7830   -7.7670   -5.1580 H    6409  WAT6409     0.2052
  19225  O        -26.5280  -10.1730   -3.5450 O.3  6410  WAT6410    -0.4105
  19226  H1       -26.4080  -10.7690   -2.8050 H    6410  WAT6410     0.2052
  19227  H2       -25.6680  -10.1360   -3.9640 H    6410  WAT6410     0.2052
  19228  O        -24.1890   -9.6190   -4.9680 O.3  6411  WAT6411    -0.4105
  19229  H1       -24.7150   -9.0950   -5.5720 H    6411  WAT6411     0.2052
  19230  H2       -23.8460   -8.9870   -4.3370 H    6411  WAT6411     0.2052
  19231  O        -24.9410  -14.0140   -2.0540 O.3  6412  WAT6412    -0.4105
  19232  H1       -25.6300  -14.6760   -2.1190 H    6412  WAT6412     0.2052
  19233  H2       -24.2210  -14.4600   -1.6090 H    6412  WAT6412     0.2052
  19234  O        -24.3110  -17.4190  -15.9950 O.3  6413  WAT6413    -0.4105
  19235  H1       -24.0310  -18.2620  -15.6390 H    6413  WAT6413     0.2052
  19236  H2       -25.0850  -17.1870  -15.4810 H    6413  WAT6413     0.2052
  19237  O        -28.1570   -0.3640   -3.5540 O.3  6414  WAT6414    -0.4105
  19238  H1       -28.2310    0.5390   -3.2470 H    6414  WAT6414     0.2052
  19239  H2       -29.0590   -0.6830   -3.5820 H    6414  WAT6414     0.2052
  19240  O        -27.6090   -1.1980  -15.9310 O.3  6415  WAT6415    -0.4105
  19241  H1       -26.7130   -0.8600  -15.9090 H    6415  WAT6415     0.2052
  19242  H2       -27.5770   -1.9200  -16.5590 H    6415  WAT6415     0.2052
  19243  O        -20.6290   -2.6680   -3.2250 O.3  6416  WAT6416    -0.4105
  19244  H1       -21.2290   -2.6090   -3.9680 H    6416  WAT6416     0.2052
  19245  H2       -20.5000   -3.6080   -3.0950 H    6416  WAT6416     0.2052
  19246  O        -19.3890   -4.9260  -17.8880 O.3  6417  WAT6417    -0.4105
  19247  H1       -20.2200   -4.8590  -17.4170 H    6417  WAT6417     0.2052
  19248  H2       -19.2120   -4.0360  -18.1910 H    6417  WAT6417     0.2052
  19249  O        -19.9330   -8.1810  -15.3840 O.3  6418  WAT6418    -0.4105
  19250  H1       -19.1710   -7.6120  -15.2780 H    6418  WAT6418     0.2052
  19251  H2       -19.9180   -8.7490  -14.6130 H    6418  WAT6418     0.2052
  19252  O        -18.9270   -7.3260  -10.5400 O.3  6419  WAT6419    -0.4105
  19253  H1       -18.5560   -8.1100  -10.9470 H    6419  WAT6419     0.2052
  19254  H2       -18.2870   -6.6380  -10.7180 H    6419  WAT6419     0.2052
  19255  O        -21.9440   -5.9430   -5.1270 O.3  6420  WAT6420    -0.4105
  19256  H1       -22.7580   -5.5130   -4.8650 H    6420  WAT6420     0.2052
  19257  H2       -21.5360   -5.3310   -5.7400 H    6420  WAT6420     0.2052
  19258  O        -19.8810   -7.8880  -18.2270 O.3  6421  WAT6421    -0.4105
  19259  H1       -19.6060   -6.9800  -18.3550 H    6421  WAT6421     0.2052
  19260  H2       -20.0700   -7.9520  -17.2910 H    6421  WAT6421     0.2052
  19261  O        -23.4840  -14.8640  -16.9320 O.3  6422  WAT6422    -0.4105
  19262  H1       -23.0650  -15.0500  -17.7720 H    6422  WAT6422     0.2052
  19263  H2       -23.7900  -15.7160  -16.6210 H    6422  WAT6422     0.2052
  19264  O        -19.9850   -9.9510  -13.2340 O.3  6423  WAT6423    -0.4105
  19265  H1       -20.3600  -10.7180  -13.6660 H    6423  WAT6423     0.2052
  19266  H2       -20.7150   -9.5690  -12.7470 H    6423  WAT6423     0.2052
  19267  O        -20.5950  -10.8040   -3.6000 O.3  6424  WAT6424    -0.4105
  19268  H1       -20.8260  -11.0330   -4.5000 H    6424  WAT6424     0.2052
  19269  H2       -20.3340   -9.8840   -3.6460 H    6424  WAT6424     0.2052
  19270  O        -22.1560  -15.5780   -0.8220 O.3  6425  WAT6425    -0.4105
  19271  H1       -21.2790  -15.5700   -0.4390 H    6425  WAT6425     0.2052
  19272  H2       -22.1440  -16.3150   -1.4330 H    6425  WAT6425     0.2052
  19273  O        -20.7100  -11.7250   -9.9330 O.3  6426  WAT6426    -0.4105
  19274  H1       -20.1860  -12.2190  -10.5640 H    6426  WAT6426     0.2052
  19275  H2       -20.1240  -11.5900   -9.1890 H    6426  WAT6426     0.2052
  19276  O        -20.5310  -11.6410   -6.4110 O.3  6427  WAT6427    -0.4105
  19277  H1       -21.4810  -11.6750   -6.2970 H    6427  WAT6427     0.2052
  19278  H2       -20.3490  -10.7310   -6.6460 H    6427  WAT6427     0.2052
  19279  O        -21.2200  -12.4680  -13.9940 O.3  6428  WAT6428    -0.4105
  19280  H1       -20.7240  -12.7010  -13.2090 H    6428  WAT6428     0.2052
  19281  H2       -21.4180  -13.3070  -14.4100 H    6428  WAT6428     0.2052
  19282  O        -19.7910  -13.8320  -11.4600 O.3  6429  WAT6429    -0.4105
  19283  H1       -19.9010  -13.9860  -10.5220 H    6429  WAT6429     0.2052
  19284  H2       -19.0300  -14.3600  -11.7030 H    6429  WAT6429     0.2052
  19285  O        -21.4440  -17.8930   -5.0020 O.3  6430  WAT6430    -0.4105
  19286  H1       -20.8070  -17.2790   -4.6360 H    6430  WAT6430     0.2052
  19287  H2       -21.2970  -17.8560   -5.9470 H    6430  WAT6430     0.2052
  19288  O        -18.9020  -16.0010  -18.2200 O.3  6431  WAT6431    -0.4105
  19289  H1       -17.9770  -16.1330  -18.4280 H    6431  WAT6431     0.2052
  19290  H2       -18.9240  -15.9220  -17.2660 H    6431  WAT6431     0.2052
  19291  O        -18.8280  -15.2300  -15.5940 O.3  6432  WAT6432    -0.4105
  19292  H1       -19.6230  -15.2960  -15.0650 H    6432  WAT6432     0.2052
  19293  H2       -18.6240  -14.2950  -15.6060 H    6432  WAT6432     0.2052
  19294  O        -21.8860   -1.1910  -11.6000 O.3  6433  WAT6433    -0.4105
  19295  H1       -21.2900   -1.5120  -12.2770 H    6433  WAT6433     0.2052
  19296  H2       -21.6280   -1.6640  -10.8090 H    6433  WAT6433     0.2052
  19297  O        -28.0740  -16.7400   -2.0950 O.3  6434  WAT6434    -0.4105
  19298  H1       -28.1350  -16.1480   -1.3450 H    6434  WAT6434     0.2052
  19299  H2       -27.1340  -16.8470   -2.2400 H    6434  WAT6434     0.2052
  19300  O        -25.4370  -17.0830   -2.4550 O.3  6435  WAT6435    -0.4105
  19301  H1       -24.8230  -16.7650   -3.1170 H    6435  WAT6435     0.2052
  19302  H2       -24.8920  -17.5680   -1.8360 H    6435  WAT6435     0.2052
  19303  O        -19.0190   -1.1840   -5.0490 O.3  6436  WAT6436    -0.4105
  19304  H1       -19.5130   -0.7870   -5.7660 H    6436  WAT6436     0.2052
  19305  H2       -19.6280   -1.8090   -4.6550 H    6436  WAT6436     0.2052
  19306  O        -24.6960  -18.5200   -6.1280 O.3  6437  WAT6437    -0.4105
  19307  H1       -25.5700  -18.1860   -6.3310 H    6437  WAT6437     0.2052
  19308  H2       -24.8050  -18.9920   -5.3030 H    6437  WAT6437     0.2052
  19309  O        -23.7890  -16.3130   -4.7440 O.3  6438  WAT6438    -0.4105
  19310  H1       -24.1170  -17.1270   -5.1240 H    6438  WAT6438     0.2052
  19311  H2       -22.8400  -16.3560   -4.8680 H    6438  WAT6438     0.2052
  19312  O        -21.3350   -0.5410   -7.7700 O.3  6439  WAT6439    -0.4105
  19313  H1       -21.7950    0.2100   -8.1450 H    6439  WAT6439     0.2052
  19314  H2       -21.9640   -1.2610   -7.8290 H    6439  WAT6439     0.2052
  19315  O        -28.1660   -1.3420   -7.7690 O.3  6440  WAT6440    -0.4105
  19316  H1       -27.8780   -1.5960   -8.6450 H    6440  WAT6440     0.2052
  19317  H2       -27.6540   -1.8940   -7.1780 H    6440  WAT6440     0.2052
  19318  O        -26.9480  -17.6030   -7.1890 O.3  6441  WAT6441    -0.4105
  19319  H1       -27.7310  -17.1280   -6.9090 H    6441  WAT6441     0.2052
  19320  H2       -27.2420  -18.5070   -7.2980 H    6441  WAT6441     0.2052
  19321  O        -22.3960  -16.9000   -9.1440 O.3  6442  WAT6442    -0.4105
  19322  H1       -21.9550  -16.9560   -9.9920 H    6442  WAT6442     0.2052
  19323  H2       -22.6650  -15.9850   -9.0730 H    6442  WAT6442     0.2052
  19324  O        -20.5320  -17.2690  -11.1330 O.3  6443  WAT6443    -0.4105
  19325  H1       -20.5930  -18.2130  -11.2800 H    6443  WAT6443     0.2052
  19326  H2       -19.7530  -17.1610  -10.5880 H    6443  WAT6443     0.2052
  19327  O        -29.0630  -15.1840  -11.6780 O.3  6444  WAT6444    -0.4105
  19328  H1       -29.8750  -15.5580  -12.0180 H    6444  WAT6444     0.2052
  19329  H2       -28.5590  -15.9400  -11.3750 H    6444  WAT6444     0.2052
  19330  O        -24.5600  -18.5200  -10.4390 O.3  6445  WAT6445    -0.4105
  19331  H1       -23.9570  -17.9480   -9.9640 H    6445  WAT6445     0.2052
  19332  H2       -25.3010  -17.9560  -10.6620 H    6445  WAT6445     0.2052
  19333  O        -21.4170  -18.1180  -15.1650 O.3  6446  WAT6446    -0.4105
  19334  H1       -21.2220  -17.2190  -14.8980 H    6446  WAT6446     0.2052
  19335  H2       -22.2040  -18.3490  -14.6720 H    6446  WAT6446     0.2052
  19336  O        -28.0990   -0.4200   -0.4020 O.3  6447  WAT6447    -0.4105
  19337  H1       -27.1720   -0.6560   -0.3580 H    6447  WAT6447     0.2052
  19338  H2       -28.1140    0.4070   -0.8830 H    6447  WAT6447     0.2052
  19339  O        -19.8640   -0.8780  -13.4050 O.3  6448  WAT6448    -0.4105
  19340  H1       -19.6890   -1.5640  -14.0480 H    6448  WAT6448     0.2052
  19341  H2       -20.5620   -0.3530  -13.7970 H    6448  WAT6448     0.2052
  19342  O        -24.3110  -18.3400   -0.0600 O.3  6449  WAT6449    -0.4105
  19343  H1       -24.4240  -18.0210    0.8350 H    6449  WAT6449     0.2052
  19344  H2       -23.4940  -17.9390   -0.3560 H    6449  WAT6449     0.2052
  19345  O        -21.5310   -1.1930   -0.5780 O.3  6450  WAT6450    -0.4105
  19346  H1       -20.7380   -1.6880   -0.7850 H    6450  WAT6450     0.2052
  19347  H2       -21.2380   -0.5140    0.0300 H    6450  WAT6450     0.2052
  19348  O        -27.2730   -8.5430  -27.8150 O.3  6451  WAT6451    -0.4105
  19349  H1       -28.0490   -9.0230  -27.5250 H    6451  WAT6451     0.2052
  19350  H2       -26.6220   -9.2230  -27.9900 H    6451  WAT6451     0.2052
  19351  O        -23.2520   -4.1370  -29.0350 O.3  6452  WAT6452    -0.4105
  19352  H1       -23.7140   -4.9080  -28.7070 H    6452  WAT6452     0.2052
  19353  H2       -22.4400   -4.1110  -28.5300 H    6452  WAT6452     0.2052
  19354  O        -27.8320   -5.8670  -27.8080 O.3  6453  WAT6453    -0.4105
  19355  H1       -27.9010   -6.8080  -27.9690 H    6453  WAT6453     0.2052
  19356  H2       -27.0700   -5.7770  -27.2360 H    6453  WAT6453     0.2052
  19357  O        -26.8020  -13.0600  -27.5810 O.3  6454  WAT6454    -0.4105
  19358  H1       -26.4250  -13.9330  -27.6940 H    6454  WAT6454     0.2052
  19359  H2       -26.9000  -12.7250  -28.4720 H    6454  WAT6454     0.2052
  19360  O        -18.7290  -13.5490  -24.0840 O.3  6455  WAT6455    -0.4105
  19361  H1       -19.4340  -13.1600  -24.6030 H    6455  WAT6455     0.2052
  19362  H2       -18.4640  -12.8540  -23.4820 H    6455  WAT6455     0.2052
  19363  O        -22.7830  -13.6250  -27.8760 O.3  6456  WAT6456    -0.4105
  19364  H1       -23.4880  -13.3370  -27.2960 H    6456  WAT6456     0.2052
  19365  H2       -22.4220  -12.8150  -28.2360 H    6456  WAT6456     0.2052
  19366  O        -21.1670   -4.0080  -25.6130 O.3  6457  WAT6457    -0.4105
  19367  H1       -21.8510   -3.3380  -25.6210 H    6457  WAT6457     0.2052
  19368  H2       -20.6280   -3.8100  -26.3790 H    6457  WAT6457     0.2052
  19369  O        -19.7150  -14.1800  -27.4850 O.3  6458  WAT6458    -0.4105
  19370  H1       -20.6620  -14.1460  -27.3530 H    6458  WAT6458     0.2052
  19371  H2       -19.3900  -13.3660  -27.1000 H    6458  WAT6458     0.2052
  19372  O        -23.6310   -2.1630  -26.8990 O.3  6459  WAT6459    -0.4105
  19373  H1       -23.6180   -2.5670  -27.7660 H    6459  WAT6459     0.2052
  19374  H2       -24.1840   -1.3890  -27.0020 H    6459  WAT6459     0.2052
  19375  O        -24.2330   -7.2600  -25.5700 O.3  6460  WAT6460    -0.4105
  19376  H1       -23.8160   -7.4740  -26.4050 H    6460  WAT6460     0.2052
  19377  H2       -23.5090   -7.0030  -24.9990 H    6460  WAT6460     0.2052
  19378  O        -20.2860   -8.8620  -25.4790 O.3  6461  WAT6461    -0.4105
  19379  H1       -21.1140   -8.7920  -25.9540 H    6461  WAT6461     0.2052
  19380  H2       -19.6910   -8.2760  -25.9470 H    6461  WAT6461     0.2052
  19381  O        -23.3220  -12.0750  -24.5330 O.3  6462  WAT6462    -0.4105
  19382  H1       -23.7350  -11.2490  -24.2790 H    6462  WAT6462     0.2052
  19383  H2       -24.0550  -12.6600  -24.7260 H    6462  WAT6462     0.2052
  19384  O        -22.6320   -2.0290  -23.8450 O.3  6463  WAT6463    -0.4105
  19385  H1       -23.1090   -1.2220  -24.0380 H    6463  WAT6463     0.2052
  19386  H2       -23.3160   -2.6810  -23.6920 H    6463  WAT6463     0.2052
  19387  O        -19.0520   -2.2680  -18.7760 O.3  6464  WAT6464    -0.4105
  19388  H1       -18.5760   -1.7890  -18.0970 H    6464  WAT6464     0.2052
  19389  H2       -18.4310   -2.3360  -19.5010 H    6464  WAT6464     0.2052
  19390  O        -19.6490   -5.0760  -21.6160 O.3  6465  WAT6465    -0.4105
  19391  H1       -19.5230   -5.3150  -22.5340 H    6465  WAT6465     0.2052
  19392  H2       -19.6070   -5.9080  -21.1440 H    6465  WAT6465     0.2052
  19393  O        -25.7870   -1.3740  -23.0460 O.3  6466  WAT6466    -0.4105
  19394  H1       -25.2730   -1.4630  -22.2440 H    6466  WAT6466     0.2052
  19395  H2       -26.6300   -1.0280  -22.7540 H    6466  WAT6466     0.2052
  19396  O        -19.7960  -13.0230  -20.6510 O.3  6467  WAT6467    -0.4105
  19397  H1       -20.4120  -12.5150  -21.1790 H    6467  WAT6467     0.2052
  19398  H2       -20.1170  -13.9230  -20.7080 H    6467  WAT6467     0.2052
  19399  O        -27.7350  -14.1840  -23.1850 O.3  6468  WAT6468    -0.4105
  19400  H1       -28.1970  -13.9760  -22.3730 H    6468  WAT6468     0.2052
  19401  H2       -28.1370  -14.9980  -23.4880 H    6468  WAT6468     0.2052
  19402  O        -22.7350  -12.9630  -22.0550 O.3  6469  WAT6469    -0.4105
  19403  H1       -23.5850  -13.2620  -21.7340 H    6469  WAT6469     0.2052
  19404  H2       -22.8940  -12.7190  -22.9670 H    6469  WAT6469     0.2052
  19405  O        -25.6400  -11.4630  -19.9550 O.3  6470  WAT6470    -0.4105
  19406  H1       -25.3140  -12.2960  -20.2950 H    6470  WAT6470     0.2052
  19407  H2       -24.8520  -10.9400  -19.8070 H    6470  WAT6470     0.2052
  19408  O        -29.7910  -11.0290  -20.3940 O.3  6471  WAT6471    -0.4105
  19409  H1       -29.8860  -11.9690  -20.5440 H    6471  WAT6471     0.2052
  19410  H2       -28.9470  -10.8070  -20.7890 H    6471  WAT6471     0.2052
  19411  O        -28.0850  -14.5340  -19.1710 O.3  6472  WAT6472    -0.4105
  19412  H1       -28.7750  -14.7270  -18.5360 H    6472  WAT6472     0.2052
  19413  H2       -27.3420  -14.2510  -18.6390 H    6472  WAT6472     0.2052
  19414  O        -25.8090  -10.6940  -26.3360 O.3  6473  WAT6473    -0.4105
  19415  H1       -26.5410  -10.1850  -25.9870 H    6473  WAT6473     0.2052
  19416  H2       -26.2060  -11.5110  -26.6370 H    6473  WAT6473     0.2052
  19417  O        -29.3710  -14.0190  -27.9300 O.3  6474  WAT6474    -0.4105
  19418  H1       -29.3670  -14.4600  -28.7800 H    6474  WAT6474     0.2052
  19419  H2       -28.4760  -13.6970  -27.8230 H    6474  WAT6474     0.2052
  19420  O        -25.3460  -15.2410  -26.9230 O.3  6475  WAT6475    -0.4105
  19421  H1       -25.3290  -14.7900  -26.0790 H    6475  WAT6475     0.2052
  19422  H2       -25.5950  -16.1400  -26.7100 H    6475  WAT6475     0.2052
  19423  O        -21.9190  -17.8280  -21.0850 O.3  6476  WAT6476    -0.4105
  19424  H1       -21.5950  -18.5590  -20.5590 H    6476  WAT6476     0.2052
  19425  H2       -21.8840  -18.1460  -21.9870 H    6476  WAT6476     0.2052
  19426  O        -29.0700   -9.9590  -26.1840 O.3  6477  WAT6477    -0.4105
  19427  H1       -28.7030  -10.4330  -25.4380 H    6477  WAT6477     0.2052
  19428  H2       -29.2600   -9.0840  -25.8430 H    6477  WAT6477     0.2052
  19429  O        -21.9930   -7.7150  -27.4760 O.3  6478  WAT6478    -0.4105
  19430  H1       -21.2730   -7.2190  -27.8670 H    6478  WAT6478     0.2052
  19431  H2       -22.1950   -8.3930  -28.1210 H    6478  WAT6478     0.2052
  19432  O        -26.6110   -7.6440  -21.5890 O.3  6479  WAT6479    -0.4105
  19433  H1       -26.6780   -8.5650  -21.8430 H    6479  WAT6479     0.2052
  19434  H2       -27.2410   -7.5470  -20.8750 H    6479  WAT6479     0.2052
  19435  O        -26.6800   -4.8220  -21.8390 O.3  6480  WAT6480    -0.4105
  19436  H1       -26.6650   -5.7540  -22.0570 H    6480  WAT6480     0.2052
  19437  H2       -27.3870   -4.7360  -21.2000 H    6480  WAT6480     0.2052
  19438  O        -20.4690   -8.1810  -22.4920 O.3  6481  WAT6481    -0.4105
  19439  H1       -21.1940   -7.5880  -22.6890 H    6481  WAT6481     0.2052
  19440  H2       -19.9410   -8.1890  -23.2910 H    6481  WAT6481     0.2052
  19441  O        -24.9390   -6.4550  -28.9940 O.3  6482  WAT6482    -0.4105
  19442  H1       -24.5860   -7.0530  -29.6530 H    6482  WAT6482     0.2052
  19443  H2       -25.8230   -6.7810  -28.8230 H    6482  WAT6482     0.2052
  19444  O        -27.2460   -3.1800  -24.7450 O.3  6483  WAT6483    -0.4105
  19445  H1       -26.6020   -2.9740  -24.0670 H    6483  WAT6483     0.2052
  19446  H2       -26.8830   -3.9410  -25.1980 H    6483  WAT6483     0.2052
  19447  O        -25.9730   -5.1770  -26.0270 O.3  6484  WAT6484    -0.4105
  19448  H1       -25.3310   -5.8780  -25.9140 H    6484  WAT6484     0.2052
  19449  H2       -25.4480   -4.3970  -26.2070 H    6484  WAT6484     0.2052
  19450  O        -24.1990   -4.3780  -22.8230 O.3  6485  WAT6485    -0.4105
  19451  H1       -23.8640   -3.7910  -22.1460 H    6485  WAT6485     0.2052
  19452  H2       -25.1190   -4.5080  -22.5940 H    6485  WAT6485     0.2052
  19453  O        -28.3710   -4.3280  -19.6550 O.3  6486  WAT6486    -0.4105
  19454  H1       -28.6910   -5.0480  -19.1100 H    6486  WAT6486     0.2052
  19455  H2       -29.0450   -3.6530  -19.5810 H    6486  WAT6486     0.2052
  19456  O        -25.1550  -14.0960  -24.2910 O.3  6487  WAT6487    -0.4105
  19457  H1       -24.7870  -14.9160  -23.9630 H    6487  WAT6487     0.2052
  19458  H2       -26.0150  -14.0360  -23.8750 H    6487  WAT6487     0.2052
  19459  O        -28.1950  -11.4420  -24.0670 O.3  6488  WAT6488    -0.4105
  19460  H1       -27.6970  -10.9670  -23.4020 H    6488  WAT6488     0.2052
  19461  H2       -28.0530  -12.3660  -23.8600 H    6488  WAT6488     0.2052
  19462  O        -20.9880  -15.2250  -23.2240 O.3  6489  WAT6489    -0.4105
  19463  H1       -21.4910  -14.4850  -22.8850 H    6489  WAT6489     0.2052
  19464  H2       -20.1730  -14.8370  -23.5410 H    6489  WAT6489     0.2052
  19465  O        -22.6960   -9.9820  -29.7780 O.3  6490  WAT6490    -0.4105
  19466  H1       -23.6370   -9.9670  -29.6030 H    6490  WAT6490     0.2052
  19467  H2       -22.3820  -10.7680  -29.3320 H    6490  WAT6490     0.2052
  19468  O        -20.6940   -2.8110  -28.1030 O.3  6491  WAT6491    -0.4105
  19469  H1       -20.5690   -1.9880  -27.6300 H    6491  WAT6491     0.2052
  19470  H2       -19.8270   -3.0220  -28.4500 H    6491  WAT6491     0.2052
  19471  O        -25.3800   -5.4250  -19.2950 O.3  6492  WAT6492    -0.4105
  19472  H1       -25.9860   -5.4020  -20.0350 H    6492  WAT6492     0.2052
  19473  H2       -25.6840   -6.1570  -18.7580 H    6492  WAT6492     0.2052
  19474  O        -23.9500   -1.6970  -20.6840 O.3  6493  WAT6493    -0.4105
  19475  H1       -22.9970   -1.7810  -20.7340 H    6493  WAT6493     0.2052
  19476  H2       -24.0970   -1.0330  -20.0110 H    6493  WAT6493     0.2052
  19477  O        -22.3000   -5.9080  -20.2080 O.3  6494  WAT6494    -0.4105
  19478  H1       -21.5590   -5.5710  -20.7110 H    6494  WAT6494     0.2052
  19479  H2       -23.0630   -5.7390  -20.7610 H    6494  WAT6494     0.2052
  19480  O        -23.6260   -7.8570  -21.6720 O.3  6495  WAT6495    -0.4105
  19481  H1       -23.2110   -7.7020  -20.8230 H    6495  WAT6495     0.2052
  19482  H2       -24.5600   -7.7310  -21.5100 H    6495  WAT6495     0.2052
  19483  O        -23.1530  -10.5170  -19.6680 O.3  6496  WAT6496    -0.4105
  19484  H1       -22.5710  -11.2720  -19.7560 H    6496  WAT6496     0.2052
  19485  H2       -22.9770   -9.9860  -20.4450 H    6496  WAT6496     0.2052
  19486  O        -29.2700  -16.8000  -24.3240 O.3  6497  WAT6497    -0.4105
  19487  H1       -29.7180  -16.7780  -25.1690 H    6497  WAT6497     0.2052
  19488  H2       -29.9030  -17.1980  -23.7270 H    6497  WAT6497     0.2052
  19489  O        -28.8640   -7.9050  -23.7030 O.3  6498  WAT6498    -0.4105
  19490  H1       -28.4450   -7.0610  -23.8750 H    6498  WAT6498     0.2052
  19491  H2       -29.7830   -7.7670  -23.9320 H    6498  WAT6498     0.2052
  19492  O        -26.5280  -10.1730  -22.3190 O.3  6499  WAT6499    -0.4105
  19493  H1       -26.4080  -10.7690  -21.5790 H    6499  WAT6499     0.2052
  19494  H2       -25.6680  -10.1360  -22.7390 H    6499  WAT6499     0.2052
  19495  O        -24.1890   -9.6190  -23.7430 O.3  6500  WAT6500    -0.4105
  19496  H1       -24.7150   -9.0950  -24.3460 H    6500  WAT6500     0.2052
  19497  H2       -23.8460   -8.9870  -23.1120 H    6500  WAT6500     0.2052
  19498  O        -24.9410  -14.0140  -20.8280 O.3  6501  WAT6501    -0.4105
  19499  H1       -25.6300  -14.6760  -20.8930 H    6501  WAT6501     0.2052
  19500  H2       -24.2210  -14.4600  -20.3830 H    6501  WAT6501     0.2052
  19501  O        -28.1570   -0.3640  -22.3280 O.3  6502  WAT6502    -0.4105
  19502  H1       -28.2310    0.5390  -22.0210 H    6502  WAT6502     0.2052
  19503  H2       -29.0590   -0.6830  -22.3560 H    6502  WAT6502     0.2052
  19504  O        -20.6290   -2.6680  -21.9990 O.3  6503  WAT6503    -0.4105
  19505  H1       -21.2290   -2.6090  -22.7430 H    6503  WAT6503     0.2052
  19506  H2       -20.5000   -3.6080  -21.8690 H    6503  WAT6503     0.2052
  19507  O        -18.9270   -7.3260  -29.3140 O.3  6504  WAT6504    -0.4105
  19508  H1       -18.5560   -8.1100  -29.7210 H    6504  WAT6504     0.2052
  19509  H2       -18.2870   -6.6380  -29.4930 H    6504  WAT6504     0.2052
  19510  O        -21.9440   -5.9430  -23.9010 O.3  6505  WAT6505    -0.4105
  19511  H1       -22.7580   -5.5130  -23.6390 H    6505  WAT6505     0.2052
  19512  H2       -21.5360   -5.3310  -24.5150 H    6505  WAT6505     0.2052
  19513  O        -20.5950  -10.8040  -22.3750 O.3  6506  WAT6506    -0.4105
  19514  H1       -20.8260  -11.0330  -23.2750 H    6506  WAT6506     0.2052
  19515  H2       -20.3340   -9.8840  -22.4200 H    6506  WAT6506     0.2052
  19516  O        -22.1560  -15.5780  -19.5970 O.3  6507  WAT6507    -0.4105
  19517  H1       -21.2790  -15.5700  -19.2130 H    6507  WAT6507     0.2052
  19518  H2       -22.1440  -16.3150  -20.2070 H    6507  WAT6507     0.2052
  19519  O        -20.7100  -11.7250  -28.7080 O.3  6508  WAT6508    -0.4105
  19520  H1       -20.1860  -12.2190  -29.3390 H    6508  WAT6508     0.2052
  19521  H2       -20.1240  -11.5900  -27.9630 H    6508  WAT6508     0.2052
  19522  O        -20.5310  -11.6410  -25.1860 O.3  6509  WAT6509    -0.4105
  19523  H1       -21.4810  -11.6750  -25.0710 H    6509  WAT6509     0.2052
  19524  H2       -20.3490  -10.7310  -25.4210 H    6509  WAT6509     0.2052
  19525  O        -21.4440  -17.8930  -23.7760 O.3  6510  WAT6510    -0.4105
  19526  H1       -20.8070  -17.2790  -23.4110 H    6510  WAT6510     0.2052
  19527  H2       -21.2970  -17.8560  -24.7220 H    6510  WAT6510     0.2052
  19528  O        -28.0740  -16.7400  -20.8690 O.3  6511  WAT6511    -0.4105
  19529  H1       -28.1350  -16.1480  -20.1190 H    6511  WAT6511     0.2052
  19530  H2       -27.1340  -16.8470  -21.0140 H    6511  WAT6511     0.2052
  19531  O        -25.4370  -17.0830  -21.2300 O.3  6512  WAT6512    -0.4105
  19532  H1       -24.8230  -16.7650  -21.8920 H    6512  WAT6512     0.2052
  19533  H2       -24.8920  -17.5680  -20.6100 H    6512  WAT6512     0.2052
  19534  O        -19.0190   -1.1840  -23.8240 O.3  6513  WAT6513    -0.4105
  19535  H1       -19.5130   -0.7870  -24.5410 H    6513  WAT6513     0.2052
  19536  H2       -19.6280   -1.8090  -23.4300 H    6513  WAT6513     0.2052
  19537  O        -24.6960  -18.5200  -24.9030 O.3  6514  WAT6514    -0.4105
  19538  H1       -25.5700  -18.1860  -25.1050 H    6514  WAT6514     0.2052
  19539  H2       -24.8050  -18.9920  -24.0780 H    6514  WAT6514     0.2052
  19540  O        -23.7890  -16.3130  -23.5190 O.3  6515  WAT6515    -0.4105
  19541  H1       -24.1170  -17.1270  -23.8980 H    6515  WAT6515     0.2052
  19542  H2       -22.8400  -16.3560  -23.6420 H    6515  WAT6515     0.2052
  19543  O        -21.3350   -0.5410  -26.5450 O.3  6516  WAT6516    -0.4105
  19544  H1       -21.7950    0.2100  -26.9190 H    6516  WAT6516     0.2052
  19545  H2       -21.9640   -1.2610  -26.6030 H    6516  WAT6516     0.2052
  19546  O        -28.1660   -1.3420  -26.5430 O.3  6517  WAT6517    -0.4105
  19547  H1       -27.8780   -1.5960  -27.4200 H    6517  WAT6517     0.2052
  19548  H2       -27.6540   -1.8940  -25.9530 H    6517  WAT6517     0.2052
  19549  O        -26.9480  -17.6030  -25.9630 O.3  6518  WAT6518    -0.4105
  19550  H1       -27.7310  -17.1280  -25.6840 H    6518  WAT6518     0.2052
  19551  H2       -27.2420  -18.5070  -26.0720 H    6518  WAT6518     0.2052
  19552  O        -22.3960  -16.9000  -27.9190 O.3  6519  WAT6519    -0.4105
  19553  H1       -21.9550  -16.9560  -28.7660 H    6519  WAT6519     0.2052
  19554  H2       -22.6650  -15.9850  -27.8480 H    6519  WAT6519     0.2052
  19555  O        -24.5600  -18.5200  -29.2140 O.3  6520  WAT6520    -0.4105
  19556  H1       -23.9570  -17.9480  -28.7390 H    6520  WAT6520     0.2052
  19557  H2       -25.3010  -17.9560  -29.4360 H    6520  WAT6520     0.2052
  19558  O        -28.0990   -0.4200  -19.1760 O.3  6521  WAT6521    -0.4105
  19559  H1       -27.1720   -0.6560  -19.1330 H    6521  WAT6521     0.2052
  19560  H2       -28.1140    0.4070  -19.6580 H    6521  WAT6521     0.2052
  19561  O        -24.3110  -18.3400  -18.8340 O.3  6522  WAT6522    -0.4105
  19562  H1       -24.4240  -18.0210  -17.9390 H    6522  WAT6522     0.2052
  19563  H2       -23.4940  -17.9390  -19.1300 H    6522  WAT6522     0.2052
  19564  O        -21.5310   -1.1930  -19.3520 O.3  6523  WAT6523    -0.4105
  19565  H1       -20.7380   -1.6880  -19.5600 H    6523  WAT6523     0.2052
  19566  H2       -21.2380   -0.5140  -18.7450 H    6523  WAT6523     0.2052
  19567  O        -25.4050  -29.0950   26.6270 O.3  6524  WAT6524    -0.4105
  19568  H1       -25.4860  -30.0100   26.3560 H    6524  WAT6524     0.2052
  19569  H2       -25.8190  -28.5990   25.9210 H    6524  WAT6524     0.2052
  19570  O        -27.2730  -27.3170   28.5080 O.3  6525  WAT6525    -0.4105
  19571  H1       -28.0490  -27.7970   28.7980 H    6525  WAT6525     0.2052
  19572  H2       -26.6220  -27.9970   28.3330 H    6525  WAT6525     0.2052
  19573  O        -23.2520  -22.9110   27.2880 O.3  6526  WAT6526    -0.4105
  19574  H1       -23.7140  -23.6830   27.6160 H    6526  WAT6526     0.2052
  19575  H2       -22.4400  -22.8850   27.7930 H    6526  WAT6526     0.2052
  19576  O        -27.0260  -20.6260   26.9080 O.3  6527  WAT6527    -0.4105
  19577  H1       -27.6450  -20.1700   26.3370 H    6527  WAT6527     0.2052
  19578  H2       -26.1710  -20.4710   26.5070 H    6527  WAT6527     0.2052
  19579  O        -27.8320  -24.6420   28.5150 O.3  6528  WAT6528    -0.4105
  19580  H1       -27.9010  -25.5830   28.3540 H    6528  WAT6528     0.2052
  19581  H2       -27.0700  -24.5520   29.0870 H    6528  WAT6528     0.2052
  19582  O        -26.1600  -25.7420   24.3010 O.3  6529  WAT6529    -0.4105
  19583  H1       -26.7780  -25.2770   23.7380 H    6529  WAT6529     0.2052
  19584  H2       -25.6470  -25.0490   24.7180 H    6529  WAT6529     0.2052
  19585  O        -23.6310  -20.9380   29.4240 O.3  6530  WAT6530    -0.4105
  19586  H1       -23.6180  -21.3420   28.5570 H    6530  WAT6530     0.2052
  19587  H2       -24.1840  -20.1630   29.3210 H    6530  WAT6530     0.2052
  19588  O        -22.3370  -24.2160   24.5140 O.3  6531  WAT6531    -0.4105
  19589  H1       -22.4470  -25.1590   24.6380 H    6531  WAT6531     0.2052
  19590  H2       -22.3400  -23.8550   25.4000 H    6531  WAT6531     0.2052
  19591  O        -26.7950  -28.5900   23.8700 O.3  6532  WAT6532    -0.4105
  19592  H1       -27.7220  -28.6560   24.0990 H    6532  WAT6532     0.2052
  19593  H2       -26.6420  -27.6520   23.7550 H    6532  WAT6532     0.2052
  19594  O        -22.7650  -27.0280   24.3730 O.3  6533  WAT6533    -0.4105
  19595  H1       -23.3840  -27.3660   23.7260 H    6533  WAT6533     0.2052
  19596  H2       -22.7820  -27.6720   25.0810 H    6533  WAT6533     0.2052
  19597  O        -24.5880  -27.7890   21.3810 O.3  6534  WAT6534    -0.4105
  19598  H1       -24.1490  -28.6270   21.2340 H    6534  WAT6534     0.2052
  19599  H2       -23.8750  -27.1560   21.4670 H    6534  WAT6534     0.2052
  19600  O        -26.4790  -22.8490   25.3490 O.3  6535  WAT6535    -0.4105
  19601  H1       -26.0390  -22.1070   24.9340 H    6535  WAT6535     0.2052
  19602  H2       -26.5400  -22.6070   26.2730 H    6535  WAT6535     0.2052
  19603  O        -23.8120  -19.8620   22.7050 O.3  6536  WAT6536    -0.4105
  19604  H1       -23.9720  -20.1520   23.6030 H    6536  WAT6536     0.2052
  19605  H2       -23.9770  -20.6380   22.1700 H    6536  WAT6536     0.2052
  19606  O        -24.1090  -22.3540   21.2650 O.3  6537  WAT6537    -0.4105
  19607  H1       -24.8030  -22.3560   20.6050 H    6537  WAT6537     0.2052
  19608  H2       -23.3670  -22.7780   20.8340 H    6537  WAT6537     0.2052
  19609  O        -24.5440  -20.7270   25.3400 O.3  6538  WAT6538    -0.4105
  19610  H1       -24.0880  -21.5080   25.6530 H    6538  WAT6538     0.2052
  19611  H2       -24.2050  -20.0170   25.8840 H    6538  WAT6538     0.2052
  19612  O        -21.9930  -26.4890   28.8470 O.3  6539  WAT6539    -0.4105
  19613  H1       -21.2730  -25.9940   28.4570 H    6539  WAT6539     0.2052
  19614  H2       -22.1950  -27.1680   28.2020 H    6539  WAT6539     0.2052
  19615  O        -27.8210  -24.5510   21.9650 O.3  6540  WAT6540    -0.4105
  19616  H1       -27.4800  -23.8070   21.4690 H    6540  WAT6540     0.2052
  19617  H2       -28.6500  -24.2380   22.3270 H    6540  WAT6540     0.2052
  19618  O        -21.5460  -29.4120   20.7540 O.3  6541  WAT6541    -0.4105
  19619  H1       -21.6300  -28.9810   19.9040 H    6541  WAT6541     0.2052
  19620  H2       -20.8270  -28.9530   21.1870 H    6541  WAT6541     0.2052
  19621  O        -20.5170  -22.5580   23.4820 O.3  6542  WAT6542    -0.4105
  19622  H1       -21.1600  -23.2130   23.7570 H    6542  WAT6542     0.2052
  19623  H2       -20.9040  -22.1530   22.7060 H    6542  WAT6542     0.2052
  19624  O        -24.9390  -25.2300   27.3290 O.3  6543  WAT6543    -0.4105
  19625  H1       -24.5860  -25.8270   26.6700 H    6543  WAT6543     0.2052
  19626  H2       -25.8230  -25.5550   27.5000 H    6543  WAT6543     0.2052
  19627  O        -28.8520  -24.4700   24.7360 O.3  6544  WAT6544    -0.4105
  19628  H1       -28.1650  -23.9230   25.1170 H    6544  WAT6544     0.2052
  19629  H2       -29.6390  -23.9260   24.7710 H    6544  WAT6544     0.2052
  19630  O        -29.5500  -27.4650   24.3490 O.3  6545  WAT6545    -0.4105
  19631  H1       -29.0930  -26.6550   24.5750 H    6545  WAT6545     0.2052
  19632  H2       -29.9010  -27.7830   25.1810 H    6545  WAT6545     0.2052
  19633  O        -22.1280  -23.6670   20.0200 O.3  6546  WAT6546    -0.4105
  19634  H1       -22.3540  -24.3840   20.6120 H    6546  WAT6546     0.2052
  19635  H2       -22.5180  -23.9150   19.1820 H    6546  WAT6546     0.2052
  19636  O        -22.5460  -25.7490   21.6810 O.3  6547  WAT6547    -0.4105
  19637  H1       -22.8340  -25.2880   22.4690 H    6547  WAT6547     0.2052
  19638  H2       -21.7510  -26.2100   21.9500 H    6547  WAT6547     0.2052
  19639  O        -27.3430  -22.1940   20.2740 O.3  6548  WAT6548    -0.4105
  19640  H1       -27.2420  -22.3980   19.3440 H    6548  WAT6548     0.2052
  19641  H2       -28.2430  -22.4480   20.4790 H    6548  WAT6548     0.2052
  19642  O        -28.7010  -19.6750   24.9690 O.3  6549  WAT6549    -0.4105
  19643  H1       -28.4470  -19.7130   24.0470 H    6549  WAT6549     0.2052
  19644  H2       -29.6500  -19.8020   24.9620 H    6549  WAT6549     0.2052
  19645  O        -22.6960  -28.7560   26.5450 O.3  6550  WAT6550    -0.4105
  19646  H1       -23.6370  -28.7410   26.7200 H    6550  WAT6550     0.2052
  19647  H2       -22.3820  -29.5430   26.9910 H    6550  WAT6550     0.2052
  19648  O        -20.6940  -21.5850   28.2200 O.3  6551  WAT6551    -0.4105
  19649  H1       -20.5690  -20.7620   28.6930 H    6551  WAT6551     0.2052
  19650  H2       -19.8270  -21.7960   27.8730 H    6551  WAT6551     0.2052
  19651  O        -21.0590  -21.0920   21.1380 O.3  6552  WAT6552    -0.4105
  19652  H1       -21.3440  -21.5060   20.3240 H    6552  WAT6552     0.2052
  19653  H2       -21.2570  -20.1630   21.0180 H    6552  WAT6552     0.2052
  19654  O        -29.5940  -25.0990   19.5790 O.3  6553  WAT6553    -0.4105
  19655  H1       -29.6990  -25.7130   20.3050 H    6553  WAT6553     0.2052
  19656  H2       -29.7610  -25.6220   18.7950 H    6553  WAT6553     0.2052
  19657  O        -26.3540  -26.0370   20.1830 O.3  6554  WAT6554    -0.4105
  19658  H1       -26.9030  -25.5900   20.8270 H    6554  WAT6554     0.2052
  19659  H2       -25.7320  -26.5420   20.7070 H    6554  WAT6554     0.2052
  19660  O        -28.1730  -28.0540   19.3270 O.3  6555  WAT6555    -0.4105
  19661  H1       -27.6530  -28.7690   18.9610 H    6555  WAT6555     0.2052
  19662  H2       -27.5260  -27.4150   19.6270 H    6555  WAT6555     0.2052
  19663  O        -27.6090  -19.9730   21.6170 O.3  6556  WAT6556    -0.4105
  19664  H1       -26.7130  -19.6340   21.6390 H    6556  WAT6556     0.2052
  19665  H2       -27.5770  -20.6950   20.9900 H    6556  WAT6556     0.2052
  19666  O        -19.3890  -23.7010   19.6610 O.3  6557  WAT6557    -0.4105
  19667  H1       -20.2200  -23.6330   20.1320 H    6557  WAT6557     0.2052
  19668  H2       -19.2120  -22.8100   19.3580 H    6557  WAT6557     0.2052
  19669  O        -19.9330  -26.9560   22.1640 O.3  6558  WAT6558    -0.4105
  19670  H1       -19.1710  -26.3860   22.2700 H    6558  WAT6558     0.2052
  19671  H2       -19.9180  -27.5230   22.9350 H    6558  WAT6558     0.2052
  19672  O        -18.9270  -26.1010   27.0090 O.3  6559  WAT6559    -0.4105
  19673  H1       -18.5560  -26.8840   26.6020 H    6559  WAT6559     0.2052
  19674  H2       -18.2870  -25.4120   26.8300 H    6559  WAT6559     0.2052
  19675  O        -19.8810  -26.6620   19.3220 O.3  6560  WAT6560    -0.4105
  19676  H1       -19.6060  -25.7540   19.1940 H    6560  WAT6560     0.2052
  19677  H2       -20.0700  -26.7260   20.2580 H    6560  WAT6560     0.2052
  19678  O        -19.9850  -28.7250   24.3150 O.3  6561  WAT6561    -0.4105
  19679  H1       -20.3600  -29.4930   23.8830 H    6561  WAT6561     0.2052
  19680  H2       -20.7150  -28.3430   24.8020 H    6561  WAT6561     0.2052
  19681  O        -21.8860  -19.9650   25.9480 O.3  6562  WAT6562    -0.4105
  19682  H1       -21.2900  -20.2870   25.2720 H    6562  WAT6562     0.2052
  19683  H2       -21.6280  -20.4380   26.7400 H    6562  WAT6562     0.2052
  19684  O        -21.3350  -19.3160   29.7780 O.3  6563  WAT6563    -0.4105
  19685  H1       -21.7950  -18.5640   29.4040 H    6563  WAT6563     0.2052
  19686  H2       -21.9640  -20.0350   29.7200 H    6563  WAT6563     0.2052
  19687  O        -19.8640  -19.6520   24.1440 O.3  6564  WAT6564    -0.4105
  19688  H1       -19.6890  -20.3380   23.5000 H    6564  WAT6564     0.2052
  19689  H2       -20.5620  -19.1270   23.7520 H    6564  WAT6564     0.2052
  19690  O        -25.4050  -29.0950    7.8520 O.3  6565  WAT6565    -0.4105
  19691  H1       -25.4860  -30.0100    7.5820 H    6565  WAT6565     0.2052
  19692  H2       -25.8190  -28.5990    7.1460 H    6565  WAT6565     0.2052
  19693  O        -27.2730  -27.3170    9.7330 O.3  6566  WAT6566    -0.4105
  19694  H1       -28.0490  -27.7970   10.0230 H    6566  WAT6566     0.2052
  19695  H2       -26.6220  -27.9970    9.5590 H    6566  WAT6566     0.2052
  19696  O        -23.2520  -22.9110    8.5130 O.3  6567  WAT6567    -0.4105
  19697  H1       -23.7140  -23.6830    8.8420 H    6567  WAT6567     0.2052
  19698  H2       -22.4400  -22.8850    9.0190 H    6567  WAT6567     0.2052
  19699  O        -27.0260  -20.6260    8.1340 O.3  6568  WAT6568    -0.4105
  19700  H1       -27.6450  -20.1700    7.5630 H    6568  WAT6568     0.2052
  19701  H2       -26.1710  -20.4710    7.7330 H    6568  WAT6568     0.2052
  19702  O        -27.8320  -24.6420    9.7400 O.3  6569  WAT6569    -0.4105
  19703  H1       -27.9010  -25.5830    9.5790 H    6569  WAT6569     0.2052
  19704  H2       -27.0700  -24.5520   10.3130 H    6569  WAT6569     0.2052
  19705  O        -26.1600  -25.7420    5.5270 O.3  6570  WAT6570    -0.4105
  19706  H1       -26.7780  -25.2770    4.9630 H    6570  WAT6570     0.2052
  19707  H2       -25.6470  -25.0490    5.9440 H    6570  WAT6570     0.2052
  19708  O        -21.1670  -22.7820   11.9360 O.3  6571  WAT6571    -0.4105
  19709  H1       -21.8510  -22.1120   11.9270 H    6571  WAT6571     0.2052
  19710  H2       -20.6280  -22.5840   11.1700 H    6571  WAT6571     0.2052
  19711  O        -23.6310  -20.9380   10.6500 O.3  6572  WAT6572    -0.4105
  19712  H1       -23.6180  -21.3420    9.7820 H    6572  WAT6572     0.2052
  19713  H2       -24.1840  -20.1630   10.5460 H    6572  WAT6572     0.2052
  19714  O        -22.3370  -24.2160    5.7390 O.3  6573  WAT6573    -0.4105
  19715  H1       -22.4470  -25.1590    5.8640 H    6573  WAT6573     0.2052
  19716  H2       -22.3400  -23.8550    6.6250 H    6573  WAT6573     0.2052
  19717  O        -24.2330  -26.0350   11.9780 O.3  6574  WAT6574    -0.4105
  19718  H1       -23.8160  -26.2490   11.1440 H    6574  WAT6574     0.2052
  19719  H2       -23.5090  -25.7770   12.5490 H    6574  WAT6574     0.2052
  19720  O        -26.7950  -28.5900    5.0950 O.3  6575  WAT6575    -0.4105
  19721  H1       -27.7220  -28.6560    5.3240 H    6575  WAT6575     0.2052
  19722  H2       -26.6420  -27.6520    4.9810 H    6575  WAT6575     0.2052
  19723  O        -20.2860  -27.6360   12.0700 O.3  6576  WAT6576    -0.4105
  19724  H1       -21.1140  -27.5670   11.5950 H    6576  WAT6576     0.2052
  19725  H2       -19.6910  -27.0510   11.6020 H    6576  WAT6576     0.2052
  19726  O        -22.7650  -27.0280    5.5990 O.3  6577  WAT6577    -0.4105
  19727  H1       -23.3840  -27.3660    4.9520 H    6577  WAT6577     0.2052
  19728  H2       -22.7820  -27.6720    6.3070 H    6577  WAT6577     0.2052
  19729  O        -22.6320  -20.8030   13.7040 O.3  6578  WAT6578    -0.4105
  19730  H1       -23.1090  -19.9960   13.5110 H    6578  WAT6578     0.2052
  19731  H2       -23.3160  -21.4550   13.8560 H    6578  WAT6578     0.2052
  19732  O        -24.5880  -27.7890    2.6060 O.3  6579  WAT6579    -0.4105
  19733  H1       -24.1490  -28.6270    2.4600 H    6579  WAT6579     0.2052
  19734  H2       -23.8750  -27.1560    2.6930 H    6579  WAT6579     0.2052
  19735  O        -26.4790  -22.8490    6.5740 O.3  6580  WAT6580    -0.4105
  19736  H1       -26.0390  -22.1070    6.1600 H    6580  WAT6580     0.2052
  19737  H2       -26.5400  -22.6070    7.4980 H    6580  WAT6580     0.2052
  19738  O        -19.0520  -21.0420   18.7730 O.3  6581  WAT6581    -0.4105
  19739  H1       -18.5760  -20.5640   19.4520 H    6581  WAT6581     0.2052
  19740  H2       -18.4310  -21.1100   18.0470 H    6581  WAT6581     0.2052
  19741  O        -19.6490  -23.8510   15.9330 O.3  6582  WAT6582    -0.4105
  19742  H1       -19.5230  -24.0890   15.0140 H    6582  WAT6582     0.2052
  19743  H2       -19.6070  -24.6820   16.4050 H    6582  WAT6582     0.2052
  19744  O        -25.7870  -20.1480   14.5020 O.3  6583  WAT6583    -0.4105
  19745  H1       -25.2730  -20.2370   15.3040 H    6583  WAT6583     0.2052
  19746  H2       -26.6300  -19.8020   14.7950 H    6583  WAT6583     0.2052
  19747  O        -23.8120  -19.8620    3.9310 O.3  6584  WAT6584    -0.4105
  19748  H1       -23.9720  -20.1520    4.8290 H    6584  WAT6584     0.2052
  19749  H2       -23.9770  -20.6380    3.3950 H    6584  WAT6584     0.2052
  19750  O        -24.1090  -22.3540    2.4900 O.3  6585  WAT6585    -0.4105
  19751  H1       -24.8030  -22.3560    1.8310 H    6585  WAT6585     0.2052
  19752  H2       -23.3670  -22.7780    2.0600 H    6585  WAT6585     0.2052
  19753  O        -24.5440  -20.7270    6.5650 O.3  6586  WAT6586    -0.4105
  19754  H1       -24.0880  -21.5080    6.8790 H    6586  WAT6586     0.2052
  19755  H2       -24.2050  -20.0170    7.1090 H    6586  WAT6586     0.2052
  19756  O        -29.0700  -28.7330   11.3650 O.3  6587  WAT6587    -0.4105
  19757  H1       -28.7030  -29.2070   12.1110 H    6587  WAT6587     0.2052
  19758  H2       -29.2600  -27.8590   11.7060 H    6587  WAT6587     0.2052
  19759  O        -21.9930  -26.4890   10.0730 O.3  6588  WAT6588    -0.4105
  19760  H1       -21.2730  -25.9940    9.6820 H    6588  WAT6588     0.2052
  19761  H2       -22.1950  -27.1680    9.4280 H    6588  WAT6588     0.2052
  19762  O        -26.6110  -26.4180   15.9590 O.3  6589  WAT6589    -0.4105
  19763  H1       -26.6780  -27.3390   15.7050 H    6589  WAT6589     0.2052
  19764  H2       -27.2410  -26.3210   16.6740 H    6589  WAT6589     0.2052
  19765  O        -27.8210  -24.5510    3.1910 O.3  6590  WAT6590    -0.4105
  19766  H1       -27.4800  -23.8070    2.6950 H    6590  WAT6590     0.2052
  19767  H2       -28.6500  -24.2380    3.5530 H    6590  WAT6590     0.2052
  19768  O        -26.6800  -23.5960   15.7100 O.3  6591  WAT6591    -0.4105
  19769  H1       -26.6650  -24.5280   15.4920 H    6591  WAT6591     0.2052
  19770  H2       -27.3870  -23.5100   16.3490 H    6591  WAT6591     0.2052
  19771  O        -21.5460  -29.4120    1.9800 O.3  6592  WAT6592    -0.4105
  19772  H1       -21.6300  -28.9810    1.1290 H    6592  WAT6592     0.2052
  19773  H2       -20.8270  -28.9530    2.4120 H    6592  WAT6592     0.2052
  19774  O        -20.4690  -26.9560   15.0570 O.3  6593  WAT6593    -0.4105
  19775  H1       -21.1940  -26.3630   14.8600 H    6593  WAT6593     0.2052
  19776  H2       -19.9410  -26.9630   14.2580 H    6593  WAT6593     0.2052
  19777  O        -20.5170  -22.5580    4.7080 O.3  6594  WAT6594    -0.4105
  19778  H1       -21.1600  -23.2130    4.9820 H    6594  WAT6594     0.2052
  19779  H2       -20.9040  -22.1530    3.9320 H    6594  WAT6594     0.2052
  19780  O        -24.9390  -25.2300    8.5550 O.3  6595  WAT6595    -0.4105
  19781  H1       -24.5860  -25.8270    7.8950 H    6595  WAT6595     0.2052
  19782  H2       -25.8230  -25.5550    8.7260 H    6595  WAT6595     0.2052
  19783  O        -28.8520  -24.4700    5.9620 O.3  6596  WAT6596    -0.4105
  19784  H1       -28.1650  -23.9230    6.3430 H    6596  WAT6596     0.2052
  19785  H2       -29.6390  -23.9260    5.9970 H    6596  WAT6596     0.2052
  19786  O        -29.5500  -27.4650    5.5750 O.3  6597  WAT6597    -0.4105
  19787  H1       -29.0930  -26.6550    5.8010 H    6597  WAT6597     0.2052
  19788  H2       -29.9010  -27.7830    6.4060 H    6597  WAT6597     0.2052
  19789  O        -27.2460  -21.9550   12.8040 O.3  6598  WAT6598    -0.4105
  19790  H1       -26.6020  -21.7490   13.4810 H    6598  WAT6598     0.2052
  19791  H2       -26.8830  -22.7160   12.3510 H    6598  WAT6598     0.2052
  19792  O        -25.9730  -23.9510   11.5220 O.3  6599  WAT6599    -0.4105
  19793  H1       -25.3310  -24.6520   11.6350 H    6599  WAT6599     0.2052
  19794  H2       -25.4480  -23.1720   11.3410 H    6599  WAT6599     0.2052
  19795  O        -22.1280  -23.6670    1.2460 O.3  6600  WAT6600    -0.4105
  19796  H1       -22.3540  -24.3840    1.8380 H    6600  WAT6600     0.2052
  19797  H2       -22.5180  -23.9150    0.4080 H    6600  WAT6600     0.2052
  19798  O        -24.1990  -23.1520   14.7250 O.3  6601  WAT6601    -0.4105
  19799  H1       -23.8640  -22.5650   15.4030 H    6601  WAT6601     0.2052
  19800  H2       -25.1190  -23.2830   14.9550 H    6601  WAT6601     0.2052
  19801  O        -22.5460  -25.7490    2.9070 O.3  6602  WAT6602    -0.4105
  19802  H1       -22.8340  -25.2880    3.6950 H    6602  WAT6602     0.2052
  19803  H2       -21.7510  -26.2100    3.1750 H    6602  WAT6602     0.2052
  19804  O        -28.3710  -23.1030   17.8940 O.3  6603  WAT6603    -0.4105
  19805  H1       -28.6910  -23.8220   18.4390 H    6603  WAT6603     0.2052
  19806  H2       -29.0450  -22.4270   17.9680 H    6603  WAT6603     0.2052
  19807  O        -27.3430  -22.1940    1.5000 O.3  6604  WAT6604    -0.4105
  19808  H1       -27.2420  -22.3980    0.5700 H    6604  WAT6604     0.2052
  19809  H2       -28.2430  -22.4480    1.7050 H    6604  WAT6604     0.2052
  19810  O        -28.7010  -19.6750    6.1950 O.3  6605  WAT6605    -0.4105
  19811  H1       -28.4470  -19.7130    5.2730 H    6605  WAT6605     0.2052
  19812  H2       -29.6500  -19.8020    6.1870 H    6605  WAT6605     0.2052
  19813  O        -22.6960  -28.7560    7.7700 O.3  6606  WAT6606    -0.4105
  19814  H1       -23.6370  -28.7410    7.9450 H    6606  WAT6606     0.2052
  19815  H2       -22.3820  -29.5430    8.2170 H    6606  WAT6606     0.2052
  19816  O        -20.6940  -21.5850    9.4460 O.3  6607  WAT6607    -0.4105
  19817  H1       -20.5690  -20.7620    9.9180 H    6607  WAT6607     0.2052
  19818  H2       -19.8270  -21.7960    9.0980 H    6607  WAT6607     0.2052
  19819  O        -25.3800  -24.2000   18.2540 O.3  6608  WAT6608    -0.4105
  19820  H1       -25.9860  -24.1760   17.5130 H    6608  WAT6608     0.2052
  19821  H2       -25.6840  -24.9310   18.7900 H    6608  WAT6608     0.2052
  19822  O        -23.9500  -20.4710   16.8650 O.3  6609  WAT6609    -0.4105
  19823  H1       -22.9970  -20.5560   16.8150 H    6609  WAT6609     0.2052
  19824  H2       -24.0970  -19.8070   17.5380 H    6609  WAT6609     0.2052
  19825  O        -21.0590  -21.0920    2.3640 O.3  6610  WAT6610    -0.4105
  19826  H1       -21.3440  -21.5060    1.5490 H    6610  WAT6610     0.2052
  19827  H2       -21.2570  -20.1630    2.2440 H    6610  WAT6610     0.2052
  19828  O        -29.5940  -25.0990    0.8040 O.3  6611  WAT6611    -0.4105
  19829  H1       -29.6990  -25.7130    1.5310 H    6611  WAT6611     0.2052
  19830  H2       -29.7610  -25.6220    0.0210 H    6611  WAT6611     0.2052
  19831  O        -26.3540  -26.0370    1.4090 O.3  6612  WAT6612    -0.4105
  19832  H1       -26.9030  -25.5900    2.0530 H    6612  WAT6612     0.2052
  19833  H2       -25.7320  -26.5420    1.9320 H    6612  WAT6612     0.2052
  19834  O        -22.3000  -24.6830   17.3410 O.3  6613  WAT6613    -0.4105
  19835  H1       -21.5590  -24.3450   16.8380 H    6613  WAT6613     0.2052
  19836  H2       -23.0630  -24.5130   16.7880 H    6613  WAT6613     0.2052
  19837  O        -28.1730  -28.0540    0.5530 O.3  6614  WAT6614    -0.4105
  19838  H1       -27.6530  -28.7690    0.1870 H    6614  WAT6614     0.2052
  19839  H2       -27.5260  -27.4150    0.8530 H    6614  WAT6614     0.2052
  19840  O        -23.6260  -26.6310   15.8760 O.3  6615  WAT6615    -0.4105
  19841  H1       -23.2110  -26.4770   16.7250 H    6615  WAT6615     0.2052
  19842  H2       -24.5600  -26.5060   16.0390 H    6615  WAT6615     0.2052
  19843  O        -23.1530  -29.2910   17.8800 O.3  6616  WAT6616    -0.4105
  19844  H1       -22.5710  -30.0460   17.7920 H    6616  WAT6616     0.2052
  19845  H2       -22.9770  -28.7610   17.1030 H    6616  WAT6616     0.2052
  19846  O        -28.8640  -26.6790   13.8460 O.3  6617  WAT6617    -0.4105
  19847  H1       -28.4450  -25.8360   13.6740 H    6617  WAT6617     0.2052
  19848  H2       -29.7830  -26.5420   13.6170 H    6617  WAT6617     0.2052
  19849  O        -26.5280  -28.9470   15.2300 O.3  6618  WAT6618    -0.4105
  19850  H1       -26.4080  -29.5430   15.9690 H    6618  WAT6618     0.2052
  19851  H2       -25.6680  -28.9100   14.8100 H    6618  WAT6618     0.2052
  19852  O        -24.1890  -28.3940   13.8060 O.3  6619  WAT6619    -0.4105
  19853  H1       -24.7150  -27.8690   13.2030 H    6619  WAT6619     0.2052
  19854  H2       -23.8460  -27.7610   14.4370 H    6619  WAT6619     0.2052
  19855  O        -28.1570  -19.1390   15.2200 O.3  6620  WAT6620    -0.4105
  19856  H1       -28.2310  -18.2350   15.5280 H    6620  WAT6620     0.2052
  19857  H2       -29.0590  -19.4570   15.1930 H    6620  WAT6620     0.2052
  19858  O        -27.6090  -19.9730    2.8430 O.3  6621  WAT6621    -0.4105
  19859  H1       -26.7130  -19.6340    2.8650 H    6621  WAT6621     0.2052
  19860  H2       -27.5770  -20.6950    2.2150 H    6621  WAT6621     0.2052
  19861  O        -20.6290  -21.4420   15.5500 O.3  6622  WAT6622    -0.4105
  19862  H1       -21.2290  -21.3830   14.8060 H    6622  WAT6622     0.2052
  19863  H2       -20.5000  -22.3820   15.6790 H    6622  WAT6622     0.2052
  19864  O        -19.3890  -23.7010    0.8870 O.3  6623  WAT6623    -0.4105
  19865  H1       -20.2200  -23.6330    1.3570 H    6623  WAT6623     0.2052
  19866  H2       -19.2120  -22.8100    0.5830 H    6623  WAT6623     0.2052
  19867  O        -19.9330  -26.9560    3.3900 O.3  6624  WAT6624    -0.4105
  19868  H1       -19.1710  -26.3860    3.4960 H    6624  WAT6624     0.2052
  19869  H2       -19.9180  -27.5230    4.1610 H    6624  WAT6624     0.2052
  19870  O        -18.9270  -26.1010    8.2340 O.3  6625  WAT6625    -0.4105
  19871  H1       -18.5560  -26.8840    7.8280 H    6625  WAT6625     0.2052
  19872  H2       -18.2870  -25.4120    8.0560 H    6625  WAT6625     0.2052
  19873  O        -21.9440  -24.7170   13.6470 O.3  6626  WAT6626    -0.4105
  19874  H1       -22.7580  -24.2870   13.9100 H    6626  WAT6626     0.2052
  19875  H2       -21.5360  -24.1050   13.0340 H    6626  WAT6626     0.2052
  19876  O        -19.8810  -26.6620    0.5470 O.3  6627  WAT6627    -0.4105
  19877  H1       -19.6060  -25.7540    0.4190 H    6627  WAT6627     0.2052
  19878  H2       -20.0700  -26.7260    1.4830 H    6627  WAT6627     0.2052
  19879  O        -19.9850  -28.7250    5.5400 O.3  6628  WAT6628    -0.4105
  19880  H1       -20.3600  -29.4930    5.1080 H    6628  WAT6628     0.2052
  19881  H2       -20.7150  -28.3430    6.0280 H    6628  WAT6628     0.2052
  19882  O        -20.5950  -29.5780   15.1740 O.3  6629  WAT6629    -0.4105
  19883  H1       -20.8260  -29.8070   14.2740 H    6629  WAT6629     0.2052
  19884  H2       -20.3340  -28.6580   15.1290 H    6629  WAT6629     0.2052
  19885  O        -21.8860  -19.9650    7.1740 O.3  6630  WAT6630    -0.4105
  19886  H1       -21.2900  -20.2870    6.4980 H    6630  WAT6630     0.2052
  19887  H2       -21.6280  -20.4380    7.9650 H    6630  WAT6630     0.2052
  19888  O        -19.0190  -19.9580   13.7250 O.3  6631  WAT6631    -0.4105
  19889  H1       -19.5130  -19.5610   13.0080 H    6631  WAT6631     0.2052
  19890  H2       -19.6280  -20.5830   14.1190 H    6631  WAT6631     0.2052
  19891  O        -21.3350  -19.3160   11.0040 O.3  6632  WAT6632    -0.4105
  19892  H1       -21.7950  -18.5640   10.6300 H    6632  WAT6632     0.2052
  19893  H2       -21.9640  -20.0350   10.9450 H    6632  WAT6632     0.2052
  19894  O        -28.1660  -20.1160   11.0060 O.3  6633  WAT6633    -0.4105
  19895  H1       -27.8780  -20.3710   10.1290 H    6633  WAT6633     0.2052
  19896  H2       -27.6540  -20.6680   11.5960 H    6633  WAT6633     0.2052
  19897  O        -28.0990  -19.1940   18.3720 O.3  6634  WAT6634    -0.4105
  19898  H1       -27.1720  -19.4300   18.4160 H    6634  WAT6634     0.2052
  19899  H2       -28.1140  -18.3670   17.8910 H    6634  WAT6634     0.2052
  19900  O        -19.8640  -19.6520    5.3700 O.3  6635  WAT6635    -0.4105
  19901  H1       -19.6890  -20.3380    4.7260 H    6635  WAT6635     0.2052
  19902  H2       -20.5620  -19.1270    4.9770 H    6635  WAT6635     0.2052
  19903  O        -21.5310  -19.9670   18.1960 O.3  6636  WAT6636    -0.4105
  19904  H1       -20.7380  -20.4630   17.9890 H    6636  WAT6636     0.2052
  19905  H2       -21.2380  -19.2880   18.8040 H    6636  WAT6636     0.2052
  19906  O        -25.4050  -29.0950  -10.9220 O.3  6637  WAT6637    -0.4105
  19907  H1       -25.4860  -30.0100  -11.1930 H    6637  WAT6637     0.2052
  19908  H2       -25.8190  -28.5990  -11.6280 H    6637  WAT6637     0.2052
  19909  O        -27.2730  -27.3170   -9.0410 O.3  6638  WAT6638    -0.4105
  19910  H1       -28.0490  -27.7970   -8.7510 H    6638  WAT6638     0.2052
  19911  H2       -26.6220  -27.9970   -9.2150 H    6638  WAT6638     0.2052
  19912  O        -23.2520  -22.9110  -10.2610 O.3  6639  WAT6639    -0.4105
  19913  H1       -23.7140  -23.6830   -9.9320 H    6639  WAT6639     0.2052
  19914  H2       -22.4400  -22.8850   -9.7560 H    6639  WAT6639     0.2052
  19915  O        -27.0260  -20.6260  -10.6410 O.3  6640  WAT6640    -0.4105
  19916  H1       -27.6450  -20.1700  -11.2110 H    6640  WAT6640     0.2052
  19917  H2       -26.1710  -20.4710  -11.0420 H    6640  WAT6640     0.2052
  19918  O        -27.8320  -24.6420   -9.0340 O.3  6641  WAT6641    -0.4105
  19919  H1       -27.9010  -25.5830   -9.1950 H    6641  WAT6641     0.2052
  19920  H2       -27.0700  -24.5520   -8.4620 H    6641  WAT6641     0.2052
  19921  O        -26.1600  -25.7420  -13.2470 O.3  6642  WAT6642    -0.4105
  19922  H1       -26.7780  -25.2770  -13.8110 H    6642  WAT6642     0.2052
  19923  H2       -25.6470  -25.0490  -12.8310 H    6642  WAT6642     0.2052
  19924  O        -21.1670  -22.7820   -6.8390 O.3  6643  WAT6643    -0.4105
  19925  H1       -21.8510  -22.1120   -6.8470 H    6643  WAT6643     0.2052
  19926  H2       -20.6280  -22.5840   -7.6040 H    6643  WAT6643     0.2052
  19927  O        -23.6310  -20.9380   -8.1240 O.3  6644  WAT6644    -0.4105
  19928  H1       -23.6180  -21.3420   -8.9920 H    6644  WAT6644     0.2052
  19929  H2       -24.1840  -20.1630   -8.2280 H    6644  WAT6644     0.2052
  19930  O        -22.3370  -24.2160  -13.0350 O.3  6645  WAT6645    -0.4105
  19931  H1       -22.4470  -25.1590  -12.9100 H    6645  WAT6645     0.2052
  19932  H2       -22.3400  -23.8550  -12.1490 H    6645  WAT6645     0.2052
  19933  O        -24.2330  -26.0350   -6.7960 O.3  6646  WAT6646    -0.4105
  19934  H1       -23.8160  -26.2490   -7.6310 H    6646  WAT6646     0.2052
  19935  H2       -23.5090  -25.7770   -6.2250 H    6646  WAT6646     0.2052
  19936  O        -26.7950  -28.5900  -13.6790 O.3  6647  WAT6647    -0.4105
  19937  H1       -27.7220  -28.6560  -13.4500 H    6647  WAT6647     0.2052
  19938  H2       -26.6420  -27.6520  -13.7930 H    6647  WAT6647     0.2052
  19939  O        -20.2860  -27.6360   -6.7040 O.3  6648  WAT6648    -0.4105
  19940  H1       -21.1140  -27.5670   -7.1790 H    6648  WAT6648     0.2052
  19941  H2       -19.6910  -27.0510   -7.1730 H    6648  WAT6648     0.2052
  19942  O        -22.7650  -27.0280  -13.1750 O.3  6649  WAT6649    -0.4105
  19943  H1       -23.3840  -27.3660  -13.8230 H    6649  WAT6649     0.2052
  19944  H2       -22.7820  -27.6720  -12.4670 H    6649  WAT6649     0.2052
  19945  O        -22.6320  -20.8030   -5.0710 O.3  6650  WAT6650    -0.4105
  19946  H1       -23.1090  -19.9960   -5.2630 H    6650  WAT6650     0.2052
  19947  H2       -23.3160  -21.4550   -4.9180 H    6650  WAT6650     0.2052
  19948  O        -24.5880  -27.7890  -16.1680 O.3  6651  WAT6651    -0.4105
  19949  H1       -24.1490  -28.6270  -16.3140 H    6651  WAT6651     0.2052
  19950  H2       -23.8750  -27.1560  -16.0820 H    6651  WAT6651     0.2052
  19951  O        -26.4790  -22.8490  -12.2000 O.3  6652  WAT6652    -0.4105
  19952  H1       -26.0390  -22.1070  -12.6140 H    6652  WAT6652     0.2052
  19953  H2       -26.5400  -22.6070  -11.2760 H    6652  WAT6652     0.2052
  19954  O        -19.0520  -21.0420   -0.0020 O.3  6653  WAT6653    -0.4105
  19955  H1       -18.5760  -20.5640    0.6770 H    6653  WAT6653     0.2052
  19956  H2       -18.4310  -21.1100   -0.7270 H    6653  WAT6653     0.2052
  19957  O        -19.6490  -23.8510   -2.8420 O.3  6654  WAT6654    -0.4105
  19958  H1       -19.5230  -24.0890   -3.7600 H    6654  WAT6654     0.2052
  19959  H2       -19.6070  -24.6820   -2.3690 H    6654  WAT6654     0.2052
  19960  O        -25.7870  -20.1480   -4.2720 O.3  6655  WAT6655    -0.4105
  19961  H1       -25.2730  -20.2370   -3.4700 H    6655  WAT6655     0.2052
  19962  H2       -26.6300  -19.8020   -3.9790 H    6655  WAT6655     0.2052
  19963  O        -23.8120  -19.8620  -14.8440 O.3  6656  WAT6656    -0.4105
  19964  H1       -23.9720  -20.1520  -13.9460 H    6656  WAT6656     0.2052
  19965  H2       -23.9770  -20.6380  -15.3790 H    6656  WAT6656     0.2052
  19966  O        -24.1090  -22.3540  -16.2840 O.3  6657  WAT6657    -0.4105
  19967  H1       -24.8030  -22.3560  -16.9440 H    6657  WAT6657     0.2052
  19968  H2       -23.3670  -22.7780  -16.7140 H    6657  WAT6657     0.2052
  19969  O        -24.5440  -20.7270  -12.2090 O.3  6658  WAT6658    -0.4105
  19970  H1       -24.0880  -21.5080  -11.8950 H    6658  WAT6658     0.2052
  19971  H2       -24.2050  -20.0170  -11.6650 H    6658  WAT6658     0.2052
  19972  O        -29.0700  -28.7330   -7.4100 O.3  6659  WAT6659    -0.4105
  19973  H1       -28.7030  -29.2070   -6.6630 H    6659  WAT6659     0.2052
  19974  H2       -29.2600  -27.8590   -7.0690 H    6659  WAT6659     0.2052
  19975  O        -21.9930  -26.4890   -8.7020 O.3  6660  WAT6660    -0.4105
  19976  H1       -21.2730  -25.9940   -9.0920 H    6660  WAT6660     0.2052
  19977  H2       -22.1950  -27.1680   -9.3460 H    6660  WAT6660     0.2052
  19978  O        -26.6110  -26.4180   -2.8150 O.3  6661  WAT6661    -0.4105
  19979  H1       -26.6780  -27.3390   -3.0690 H    6661  WAT6661     0.2052
  19980  H2       -27.2410  -26.3210   -2.1000 H    6661  WAT6661     0.2052
  19981  O        -27.8210  -24.5510  -15.5840 O.3  6662  WAT6662    -0.4105
  19982  H1       -27.4800  -23.8070  -16.0790 H    6662  WAT6662     0.2052
  19983  H2       -28.6500  -24.2380  -15.2210 H    6662  WAT6662     0.2052
  19984  O        -26.6800  -23.5960   -3.0650 O.3  6663  WAT6663    -0.4105
  19985  H1       -26.6650  -24.5280   -3.2830 H    6663  WAT6663     0.2052
  19986  H2       -27.3870  -23.5100   -2.4260 H    6663  WAT6663     0.2052
  19987  O        -21.5460  -29.4120  -16.7950 O.3  6664  WAT6664    -0.4105
  19988  H1       -21.6300  -28.9810  -17.6450 H    6664  WAT6664     0.2052
  19989  H2       -20.8270  -28.9530  -16.3620 H    6664  WAT6664     0.2052
  19990  O        -20.4690  -26.9560   -3.7180 O.3  6665  WAT6665    -0.4105
  19991  H1       -21.1940  -26.3630   -3.9150 H    6665  WAT6665     0.2052
  19992  H2       -19.9410  -26.9630   -4.5160 H    6665  WAT6665     0.2052
  19993  O        -20.5170  -22.5580  -14.0660 O.3  6666  WAT6666    -0.4105
  19994  H1       -21.1600  -23.2130  -13.7920 H    6666  WAT6666     0.2052
  19995  H2       -20.9040  -22.1530  -14.8420 H    6666  WAT6666     0.2052
  19996  O        -24.9390  -25.2300  -10.2190 O.3  6667  WAT6667    -0.4105
  19997  H1       -24.5860  -25.8270  -10.8790 H    6667  WAT6667     0.2052
  19998  H2       -25.8230  -25.5550  -10.0480 H    6667  WAT6667     0.2052
  19999  O        -28.8520  -24.4700  -12.8120 O.3  6668  WAT6668    -0.4105
  20000  H1       -28.1650  -23.9230  -12.4310 H    6668  WAT6668     0.2052
  20001  H2       -29.6390  -23.9260  -12.7770 H    6668  WAT6668     0.2052
  20002  O        -29.5500  -27.4650  -13.2000 O.3  6669  WAT6669    -0.4105
  20003  H1       -29.0930  -26.6550  -12.9740 H    6669  WAT6669     0.2052
  20004  H2       -29.9010  -27.7830  -12.3680 H    6669  WAT6669     0.2052
  20005  O        -27.2460  -21.9550   -5.9700 O.3  6670  WAT6670    -0.4105
  20006  H1       -26.6020  -21.7490   -5.2930 H    6670  WAT6670     0.2052
  20007  H2       -26.8830  -22.7160   -6.4230 H    6670  WAT6670     0.2052
  20008  O        -25.9730  -23.9510   -7.2530 O.3  6671  WAT6671    -0.4105
  20009  H1       -25.3310  -24.6520   -7.1400 H    6671  WAT6671     0.2052
  20010  H2       -25.4480  -23.1720   -7.4330 H    6671  WAT6671     0.2052
  20011  O        -22.1280  -23.6670  -17.5290 O.3  6672  WAT6672    -0.4105
  20012  H1       -22.3540  -24.3840  -16.9360 H    6672  WAT6672     0.2052
  20013  H2       -22.5180  -23.9150  -18.3670 H    6672  WAT6672     0.2052
  20014  O        -24.1990  -23.1520   -4.0490 O.3  6673  WAT6673    -0.4105
  20015  H1       -23.8640  -22.5650   -3.3710 H    6673  WAT6673     0.2052
  20016  H2       -25.1190  -23.2830   -3.8190 H    6673  WAT6673     0.2052
  20017  O        -22.5460  -25.7490  -15.8670 O.3  6674  WAT6674    -0.4105
  20018  H1       -22.8340  -25.2880  -15.0800 H    6674  WAT6674     0.2052
  20019  H2       -21.7510  -26.2100  -15.5990 H    6674  WAT6674     0.2052
  20020  O        -28.3710  -23.1030   -0.8800 O.3  6675  WAT6675    -0.4105
  20021  H1       -28.6910  -23.8220   -0.3360 H    6675  WAT6675     0.2052
  20022  H2       -29.0450  -22.4270   -0.8070 H    6675  WAT6675     0.2052
  20023  O        -27.3430  -22.1940  -17.2740 O.3  6676  WAT6676    -0.4105
  20024  H1       -27.2420  -22.3980  -18.2040 H    6676  WAT6676     0.2052
  20025  H2       -28.2430  -22.4480  -17.0700 H    6676  WAT6676     0.2052
  20026  O        -28.7010  -19.6750  -12.5800 O.3  6677  WAT6677    -0.4105
  20027  H1       -28.4470  -19.7130  -13.5020 H    6677  WAT6677     0.2052
  20028  H2       -29.6500  -19.8020  -12.5870 H    6677  WAT6677     0.2052
  20029  O        -22.6960  -28.7560  -11.0040 O.3  6678  WAT6678    -0.4105
  20030  H1       -23.6370  -28.7410  -10.8290 H    6678  WAT6678     0.2052
  20031  H2       -22.3820  -29.5430  -10.5580 H    6678  WAT6678     0.2052
  20032  O        -20.6940  -21.5850   -9.3280 O.3  6679  WAT6679    -0.4105
  20033  H1       -20.5690  -20.7620   -8.8560 H    6679  WAT6679     0.2052
  20034  H2       -19.8270  -21.7960   -9.6760 H    6679  WAT6679     0.2052
  20035  O        -25.3800  -24.2000   -0.5210 O.3  6680  WAT6680    -0.4105
  20036  H1       -25.9860  -24.1760   -1.2610 H    6680  WAT6680     0.2052
  20037  H2       -25.6840  -24.9310    0.0160 H    6680  WAT6680     0.2052
  20038  O        -23.9500  -20.4710   -1.9100 O.3  6681  WAT6681    -0.4105
  20039  H1       -22.9970  -20.5560   -1.9600 H    6681  WAT6681     0.2052
  20040  H2       -24.0970  -19.8070   -1.2360 H    6681  WAT6681     0.2052
  20041  O        -21.0590  -21.0920  -16.4100 O.3  6682  WAT6682    -0.4105
  20042  H1       -21.3440  -21.5060  -17.2250 H    6682  WAT6682     0.2052
  20043  H2       -21.2570  -20.1630  -16.5300 H    6682  WAT6682     0.2052
  20044  O        -29.5940  -25.0990  -17.9700 O.3  6683  WAT6683    -0.4105
  20045  H1       -29.6990  -25.7130  -17.2440 H    6683  WAT6683     0.2052
  20046  H2       -29.7610  -25.6220  -18.7540 H    6683  WAT6683     0.2052
  20047  O        -26.3540  -26.0370  -17.3660 O.3  6684  WAT6684    -0.4105
  20048  H1       -26.9030  -25.5900  -16.7210 H    6684  WAT6684     0.2052
  20049  H2       -25.7320  -26.5420  -16.8420 H    6684  WAT6684     0.2052
  20050  O        -22.3000  -24.6830   -1.4340 O.3  6685  WAT6685    -0.4105
  20051  H1       -21.5590  -24.3450   -1.9370 H    6685  WAT6685     0.2052
  20052  H2       -23.0630  -24.5130   -1.9870 H    6685  WAT6685     0.2052
  20053  O        -28.1730  -28.0540  -18.2210 O.3  6686  WAT6686    -0.4105
  20054  H1       -27.6530  -28.7690  -18.5870 H    6686  WAT6686     0.2052
  20055  H2       -27.5260  -27.4150  -17.9210 H    6686  WAT6686     0.2052
  20056  O        -23.6260  -26.6310   -2.8980 O.3  6687  WAT6687    -0.4105
  20057  H1       -23.2110  -26.4770   -2.0490 H    6687  WAT6687     0.2052
  20058  H2       -24.5600  -26.5060   -2.7350 H    6687  WAT6687     0.2052
  20059  O        -23.1530  -29.2910   -0.8940 O.3  6688  WAT6688    -0.4105
  20060  H1       -22.5710  -30.0460   -0.9820 H    6688  WAT6688     0.2052
  20061  H2       -22.9770  -28.7610   -1.6710 H    6688  WAT6688     0.2052
  20062  O        -28.8640  -26.6790   -4.9280 O.3  6689  WAT6689    -0.4105
  20063  H1       -28.4450  -25.8360   -5.1010 H    6689  WAT6689     0.2052
  20064  H2       -29.7830  -26.5420   -5.1580 H    6689  WAT6689     0.2052
  20065  O        -26.5280  -28.9470   -3.5450 O.3  6690  WAT6690    -0.4105
  20066  H1       -26.4080  -29.5430   -2.8050 H    6690  WAT6690     0.2052
  20067  H2       -25.6680  -28.9100   -3.9640 H    6690  WAT6690     0.2052
  20068  O        -24.1890  -28.3940   -4.9680 O.3  6691  WAT6691    -0.4105
  20069  H1       -24.7150  -27.8690   -5.5720 H    6691  WAT6691     0.2052
  20070  H2       -23.8460  -27.7610   -4.3370 H    6691  WAT6691     0.2052
  20071  O        -28.1570  -19.1390   -3.5540 O.3  6692  WAT6692    -0.4105
  20072  H1       -28.2310  -18.2350   -3.2470 H    6692  WAT6692     0.2052
  20073  H2       -29.0590  -19.4570   -3.5820 H    6692  WAT6692     0.2052
  20074  O        -27.6090  -19.9730  -15.9310 O.3  6693  WAT6693    -0.4105
  20075  H1       -26.7130  -19.6340  -15.9090 H    6693  WAT6693     0.2052
  20076  H2       -27.5770  -20.6950  -16.5590 H    6693  WAT6693     0.2052
  20077  O        -20.6290  -21.4420   -3.2250 O.3  6694  WAT6694    -0.4105
  20078  H1       -21.2290  -21.3830   -3.9680 H    6694  WAT6694     0.2052
  20079  H2       -20.5000  -22.3820   -3.0950 H    6694  WAT6694     0.2052
  20080  O        -19.3890  -23.7010  -17.8880 O.3  6695  WAT6695    -0.4105
  20081  H1       -20.2200  -23.6330  -17.4170 H    6695  WAT6695     0.2052
  20082  H2       -19.2120  -22.8100  -18.1910 H    6695  WAT6695     0.2052
  20083  O        -19.9330  -26.9560  -15.3840 O.3  6696  WAT6696    -0.4105
  20084  H1       -19.1710  -26.3860  -15.2780 H    6696  WAT6696     0.2052
  20085  H2       -19.9180  -27.5230  -14.6130 H    6696  WAT6696     0.2052
  20086  O        -18.9270  -26.1010  -10.5400 O.3  6697  WAT6697    -0.4105
  20087  H1       -18.5560  -26.8840  -10.9470 H    6697  WAT6697     0.2052
  20088  H2       -18.2870  -25.4120  -10.7180 H    6697  WAT6697     0.2052
  20089  O        -21.9440  -24.7170   -5.1270 O.3  6698  WAT6698    -0.4105
  20090  H1       -22.7580  -24.2870   -4.8650 H    6698  WAT6698     0.2052
  20091  H2       -21.5360  -24.1050   -5.7400 H    6698  WAT6698     0.2052
  20092  O        -19.8810  -26.6620  -18.2270 O.3  6699  WAT6699    -0.4105
  20093  H1       -19.6060  -25.7540  -18.3550 H    6699  WAT6699     0.2052
  20094  H2       -20.0700  -26.7260  -17.2910 H    6699  WAT6699     0.2052
  20095  O        -19.9850  -28.7250  -13.2340 O.3  6700  WAT6700    -0.4105
  20096  H1       -20.3600  -29.4930  -13.6660 H    6700  WAT6700     0.2052
  20097  H2       -20.7150  -28.3430  -12.7470 H    6700  WAT6700     0.2052
  20098  O        -20.5950  -29.5780   -3.6000 O.3  6701  WAT6701    -0.4105
  20099  H1       -20.8260  -29.8070   -4.5000 H    6701  WAT6701     0.2052
  20100  H2       -20.3340  -28.6580   -3.6460 H    6701  WAT6701     0.2052
  20101  O        -21.8860  -19.9650  -11.6000 O.3  6702  WAT6702    -0.4105
  20102  H1       -21.2900  -20.2870  -12.2770 H    6702  WAT6702     0.2052
  20103  H2       -21.6280  -20.4380  -10.8090 H    6702  WAT6702     0.2052
  20104  O        -19.0190  -19.9580   -5.0490 O.3  6703  WAT6703    -0.4105
  20105  H1       -19.5130  -19.5610   -5.7660 H    6703  WAT6703     0.2052
  20106  H2       -19.6280  -20.5830   -4.6550 H    6703  WAT6703     0.2052
  20107  O        -21.3350  -19.3160   -7.7700 O.3  6704  WAT6704    -0.4105
  20108  H1       -21.7950  -18.5640   -8.1450 H    6704  WAT6704     0.2052
  20109  H2       -21.9640  -20.0350   -7.8290 H    6704  WAT6704     0.2052
  20110  O        -28.1660  -20.1160   -7.7690 O.3  6705  WAT6705    -0.4105
  20111  H1       -27.8780  -20.3710   -8.6450 H    6705  WAT6705     0.2052
  20112  H2       -27.6540  -20.6680   -7.1780 H    6705  WAT6705     0.2052
  20113  O        -28.0990  -19.1940   -0.4020 O.3  6706  WAT6706    -0.4105
  20114  H1       -27.1720  -19.4300   -0.3580 H    6706  WAT6706     0.2052
  20115  H2       -28.1140  -18.3670   -0.8830 H    6706  WAT6706     0.2052
  20116  O        -19.8640  -19.6520  -13.4050 O.3  6707  WAT6707    -0.4105
  20117  H1       -19.6890  -20.3380  -14.0480 H    6707  WAT6707     0.2052
  20118  H2       -20.5620  -19.1270  -13.7970 H    6707  WAT6707     0.2052
  20119  O        -21.5310  -19.9670   -0.5780 O.3  6708  WAT6708    -0.4105
  20120  H1       -20.7380  -20.4630   -0.7850 H    6708  WAT6708     0.2052
  20121  H2       -21.2380  -19.2880    0.0300 H    6708  WAT6708     0.2052
  20122  O        -27.2730  -27.3170  -27.8150 O.3  6709  WAT6709    -0.4105
  20123  H1       -28.0490  -27.7970  -27.5250 H    6709  WAT6709     0.2052
  20124  H2       -26.6220  -27.9970  -27.9900 H    6709  WAT6709     0.2052
  20125  O        -23.2520  -22.9110  -29.0350 O.3  6710  WAT6710    -0.4105
  20126  H1       -23.7140  -23.6830  -28.7070 H    6710  WAT6710     0.2052
  20127  H2       -22.4400  -22.8850  -28.5300 H    6710  WAT6710     0.2052
  20128  O        -27.8320  -24.6420  -27.8080 O.3  6711  WAT6711    -0.4105
  20129  H1       -27.9010  -25.5830  -27.9690 H    6711  WAT6711     0.2052
  20130  H2       -27.0700  -24.5520  -27.2360 H    6711  WAT6711     0.2052
  20131  O        -21.1670  -22.7820  -25.6130 O.3  6712  WAT6712    -0.4105
  20132  H1       -21.8510  -22.1120  -25.6210 H    6712  WAT6712     0.2052
  20133  H2       -20.6280  -22.5840  -26.3790 H    6712  WAT6712     0.2052
  20134  O        -23.6310  -20.9380  -26.8990 O.3  6713  WAT6713    -0.4105
  20135  H1       -23.6180  -21.3420  -27.7660 H    6713  WAT6713     0.2052
  20136  H2       -24.1840  -20.1630  -27.0020 H    6713  WAT6713     0.2052
  20137  O        -24.2330  -26.0350  -25.5700 O.3  6714  WAT6714    -0.4105
  20138  H1       -23.8160  -26.2490  -26.4050 H    6714  WAT6714     0.2052
  20139  H2       -23.5090  -25.7770  -24.9990 H    6714  WAT6714     0.2052
  20140  O        -20.2860  -27.6360  -25.4790 O.3  6715  WAT6715    -0.4105
  20141  H1       -21.1140  -27.5670  -25.9540 H    6715  WAT6715     0.2052
  20142  H2       -19.6910  -27.0510  -25.9470 H    6715  WAT6715     0.2052
  20143  O        -22.6320  -20.8030  -23.8450 O.3  6716  WAT6716    -0.4105
  20144  H1       -23.1090  -19.9960  -24.0380 H    6716  WAT6716     0.2052
  20145  H2       -23.3160  -21.4550  -23.6920 H    6716  WAT6716     0.2052
  20146  O        -19.0520  -21.0420  -18.7760 O.3  6717  WAT6717    -0.4105
  20147  H1       -18.5760  -20.5640  -18.0970 H    6717  WAT6717     0.2052
  20148  H2       -18.4310  -21.1100  -19.5010 H    6717  WAT6717     0.2052
  20149  O        -19.6490  -23.8510  -21.6160 O.3  6718  WAT6718    -0.4105
  20150  H1       -19.5230  -24.0890  -22.5340 H    6718  WAT6718     0.2052
  20151  H2       -19.6070  -24.6820  -21.1440 H    6718  WAT6718     0.2052
  20152  O        -25.7870  -20.1480  -23.0460 O.3  6719  WAT6719    -0.4105
  20153  H1       -25.2730  -20.2370  -22.2440 H    6719  WAT6719     0.2052
  20154  H2       -26.6300  -19.8020  -22.7540 H    6719  WAT6719     0.2052
  20155  O        -29.0700  -28.7330  -26.1840 O.3  6720  WAT6720    -0.4105
  20156  H1       -28.7030  -29.2070  -25.4380 H    6720  WAT6720     0.2052
  20157  H2       -29.2600  -27.8590  -25.8430 H    6720  WAT6720     0.2052
  20158  O        -21.9930  -26.4890  -27.4760 O.3  6721  WAT6721    -0.4105
  20159  H1       -21.2730  -25.9940  -27.8670 H    6721  WAT6721     0.2052
  20160  H2       -22.1950  -27.1680  -28.1210 H    6721  WAT6721     0.2052
  20161  O        -26.6110  -26.4180  -21.5890 O.3  6722  WAT6722    -0.4105
  20162  H1       -26.6780  -27.3390  -21.8430 H    6722  WAT6722     0.2052
  20163  H2       -27.2410  -26.3210  -20.8750 H    6722  WAT6722     0.2052
  20164  O        -26.6800  -23.5960  -21.8390 O.3  6723  WAT6723    -0.4105
  20165  H1       -26.6650  -24.5280  -22.0570 H    6723  WAT6723     0.2052
  20166  H2       -27.3870  -23.5100  -21.2000 H    6723  WAT6723     0.2052
  20167  O        -20.4690  -26.9560  -22.4920 O.3  6724  WAT6724    -0.4105
  20168  H1       -21.1940  -26.3630  -22.6890 H    6724  WAT6724     0.2052
  20169  H2       -19.9410  -26.9630  -23.2910 H    6724  WAT6724     0.2052
  20170  O        -24.9390  -25.2300  -28.9940 O.3  6725  WAT6725    -0.4105
  20171  H1       -24.5860  -25.8270  -29.6530 H    6725  WAT6725     0.2052
  20172  H2       -25.8230  -25.5550  -28.8230 H    6725  WAT6725     0.2052
  20173  O        -27.2460  -21.9550  -24.7450 O.3  6726  WAT6726    -0.4105
  20174  H1       -26.6020  -21.7490  -24.0670 H    6726  WAT6726     0.2052
  20175  H2       -26.8830  -22.7160  -25.1980 H    6726  WAT6726     0.2052
  20176  O        -25.9730  -23.9510  -26.0270 O.3  6727  WAT6727    -0.4105
  20177  H1       -25.3310  -24.6520  -25.9140 H    6727  WAT6727     0.2052
  20178  H2       -25.4480  -23.1720  -26.2070 H    6727  WAT6727     0.2052
  20179  O        -24.1990  -23.1520  -22.8230 O.3  6728  WAT6728    -0.4105
  20180  H1       -23.8640  -22.5650  -22.1460 H    6728  WAT6728     0.2052
  20181  H2       -25.1190  -23.2830  -22.5940 H    6728  WAT6728     0.2052
  20182  O        -28.3710  -23.1030  -19.6550 O.3  6729  WAT6729    -0.4105
  20183  H1       -28.6910  -23.8220  -19.1100 H    6729  WAT6729     0.2052
  20184  H2       -29.0450  -22.4270  -19.5810 H    6729  WAT6729     0.2052
  20185  O        -22.6960  -28.7560  -29.7780 O.3  6730  WAT6730    -0.4105
  20186  H1       -23.6370  -28.7410  -29.6030 H    6730  WAT6730     0.2052
  20187  H2       -22.3820  -29.5430  -29.3320 H    6730  WAT6730     0.2052
  20188  O        -20.6940  -21.5850  -28.1030 O.3  6731  WAT6731    -0.4105
  20189  H1       -20.5690  -20.7620  -27.6300 H    6731  WAT6731     0.2052
  20190  H2       -19.8270  -21.7960  -28.4500 H    6731  WAT6731     0.2052
  20191  O        -25.3800  -24.2000  -19.2950 O.3  6732  WAT6732    -0.4105
  20192  H1       -25.9860  -24.1760  -20.0350 H    6732  WAT6732     0.2052
  20193  H2       -25.6840  -24.9310  -18.7580 H    6732  WAT6732     0.2052
  20194  O        -23.9500  -20.4710  -20.6840 O.3  6733  WAT6733    -0.4105
  20195  H1       -22.9970  -20.5560  -20.7340 H    6733  WAT6733     0.2052
  20196  H2       -24.0970  -19.8070  -20.0110 H    6733  WAT6733     0.2052
  20197  O        -22.3000  -24.6830  -20.2080 O.3  6734  WAT6734    -0.4105
  20198  H1       -21.5590  -24.3450  -20.7110 H    6734  WAT6734     0.2052
  20199  H2       -23.0630  -24.5130  -20.7610 H    6734  WAT6734     0.2052
  20200  O        -23.6260  -26.6310  -21.6720 O.3  6735  WAT6735    -0.4105
  20201  H1       -23.2110  -26.4770  -20.8230 H    6735  WAT6735     0.2052
  20202  H2       -24.5600  -26.5060  -21.5100 H    6735  WAT6735     0.2052
  20203  O        -23.1530  -29.2910  -19.6680 O.3  6736  WAT6736    -0.4105
  20204  H1       -22.5710  -30.0460  -19.7560 H    6736  WAT6736     0.2052
  20205  H2       -22.9770  -28.7610  -20.4450 H    6736  WAT6736     0.2052
  20206  O        -28.8640  -26.6790  -23.7030 O.3  6737  WAT6737    -0.4105
  20207  H1       -28.4450  -25.8360  -23.8750 H    6737  WAT6737     0.2052
  20208  H2       -29.7830  -26.5420  -23.9320 H    6737  WAT6737     0.2052
  20209  O        -26.5280  -28.9470  -22.3190 O.3  6738  WAT6738    -0.4105
  20210  H1       -26.4080  -29.5430  -21.5790 H    6738  WAT6738     0.2052
  20211  H2       -25.6680  -28.9100  -22.7390 H    6738  WAT6738     0.2052
  20212  O        -24.1890  -28.3940  -23.7430 O.3  6739  WAT6739    -0.4105
  20213  H1       -24.7150  -27.8690  -24.3460 H    6739  WAT6739     0.2052
  20214  H2       -23.8460  -27.7610  -23.1120 H    6739  WAT6739     0.2052
  20215  O        -28.1570  -19.1390  -22.3280 O.3  6740  WAT6740    -0.4105
  20216  H1       -28.2310  -18.2350  -22.0210 H    6740  WAT6740     0.2052
  20217  H2       -29.0590  -19.4570  -22.3560 H    6740  WAT6740     0.2052
  20218  O        -20.6290  -21.4420  -21.9990 O.3  6741  WAT6741    -0.4105
  20219  H1       -21.2290  -21.3830  -22.7430 H    6741  WAT6741     0.2052
  20220  H2       -20.5000  -22.3820  -21.8690 H    6741  WAT6741     0.2052
  20221  O        -18.9270  -26.1010  -29.3140 O.3  6742  WAT6742    -0.4105
  20222  H1       -18.5560  -26.8840  -29.7210 H    6742  WAT6742     0.2052
  20223  H2       -18.2870  -25.4120  -29.4930 H    6742  WAT6742     0.2052
  20224  O        -21.9440  -24.7170  -23.9010 O.3  6743  WAT6743    -0.4105
  20225  H1       -22.7580  -24.2870  -23.6390 H    6743  WAT6743     0.2052
  20226  H2       -21.5360  -24.1050  -24.5150 H    6743  WAT6743     0.2052
  20227  O        -20.5950  -29.5780  -22.3750 O.3  6744  WAT6744    -0.4105
  20228  H1       -20.8260  -29.8070  -23.2750 H    6744  WAT6744     0.2052
  20229  H2       -20.3340  -28.6580  -22.4200 H    6744  WAT6744     0.2052
  20230  O        -19.0190  -19.9580  -23.8240 O.3  6745  WAT6745    -0.4105
  20231  H1       -19.5130  -19.5610  -24.5410 H    6745  WAT6745     0.2052
  20232  H2       -19.6280  -20.5830  -23.4300 H    6745  WAT6745     0.2052
  20233  O        -21.3350  -19.3160  -26.5450 O.3  6746  WAT6746    -0.4105
  20234  H1       -21.7950  -18.5640  -26.9190 H    6746  WAT6746     0.2052
  20235  H2       -21.9640  -20.0350  -26.6030 H    6746  WAT6746     0.2052
  20236  O        -28.1660  -20.1160  -26.5430 O.3  6747  WAT6747    -0.4105
  20237  H1       -27.8780  -20.3710  -27.4200 H    6747  WAT6747     0.2052
  20238  H2       -27.6540  -20.6680  -25.9530 H    6747  WAT6747     0.2052
  20239  O        -28.0990  -19.1940  -19.1760 O.3  6748  WAT6748    -0.4105
  20240  H1       -27.1720  -19.4300  -19.1330 H    6748  WAT6748     0.2052
  20241  H2       -28.1140  -18.3670  -19.6580 H    6748  WAT6748     0.2052
  20242  O        -21.5310  -19.9670  -19.3520 O.3  6749  WAT6749    -0.4105
  20243  H1       -20.7380  -20.4630  -19.5600 H    6749  WAT6749     0.2052
  20244  H2       -21.2380  -19.2880  -18.7450 H    6749  WAT6749     0.2052
@<TRIPOS>BOND
     1  1718  1717    1
     2  8687  8686    1
     3 11165 11164    1
     4 15101 15100    1
     5 13061 13060    1
     6  2909  2908    1
     7  4751  4750    1
     8  6647  6646    1
     9   608   607    1
    10 17173 17174    1
    11 17173 17175    1
    12 16483 16484    1
    13 16483 16485    1
    14 13213 13214    1
    15 13213 13215    1
    16 20185 20186    1
    17 20185 20187    1
    18 18298 18299    1
    19 18298 18300    1
    20 10069 10070    1
    21 10069 10071    1
    22 11248 11249    1
    23 11248 11250    1
    24  6799  6800    1
    25  6799  6801    1
    26  4834  4835    1
    27  4834  4836    1
    28 15253 15254    1
    29 15253 15255    1
    30 19465 19466    1
    31 19465 19467    1
    32  8839  8840    1
    33  8839  8841    1
    34 19508 19507    1
    35 10130 10129    1
    36 18341 18340    1
    37 16544 16543    1
    38 13289 13288    1
    39  6875  6874    1
    40 20222 20221    1
    41  8915  8914    1
    42 15329 15328    1
    43 15209 15208    1
    44  8795  8794    1
    45 13169 13168    1
    46  1781  1780    1
    47  3683  3682    1
    48 10037 10036    1
    49  2972  2971    1
    50  6755  6754    1
    51 16451 16450    1
    52 19442 19441    1
    53 18275 18274    1
    54 15224 15223    1
    55 20171 20170    1
    56 13184 13183    1
    57  8810  8809    1
    58 10052 10051    1
    59 16466 16465    1
    60  6770  6769    1
    61  2971  2973    1
    62 15208 15210    1
    63 10036 10038    1
    64  6754  6756    1
    65  8794  8796    1
    66  1780  1782    1
    67 16450 16452    1
    68  3682  3684    1
    69 13168 13170    1
    70 13290 13288    1
    71  6876  6874    1
    72 18342 18340    1
    73 10131 10129    1
    74 16545 16543    1
    75 19509 19507    1
    76 20223 20221    1
    77 15330 15328    1
    78  8916  8914    1
    79  4920  4918    1
    80 11334 11332    1
    81 17229 17227    1
    82 15408 15406    1
    83 19557 19555    1
    84 18390 18388    1
    85 13368 13366    1
    86  8994  8992    1
    87  6954  6952    1
    88 13062 13060    1
    89  1719  1717    1
    90  6648  6646    1
    91  8688  8686    1
    92 15102 15100    1
    93 11166 11164    1
    94   609   607    1
    95  4752  4750    1
    96  2910  2908    1
    97  8933  8932    1
    98 19520 19519    1
    99 11297 11296    1
   100 18353 18352    1
   101 17201 17200    1
   102 15347 15346    1
   103  4883  4882    1
   104 13307 13306    1
   105  6893  6892    1
   106  4803  4801    1
   107  8772  8770    1
   108  1767  1765    1
   109 13146 13144    1
   110 15186 15184    1
   111 11217 11215    1
   112  2958  2956    1
   113  6732  6730    1
   114   642   640    1
   115  6866  6865    1
   116  3035  3034    1
   117  1844  1843    1
   118 15320 15319    1
   119  3728  3727    1
   120  8906  8905    1
   121 10121 10120    1
   122 16535 16534    1
   123 13280 13279    1
   124 17227 17228    1
   125  4918  4919    1
   126  8992  8993    1
   127  6952  6953    1
   128 13366 13367    1
   129 18388 18389    1
   130 19555 19556    1
   131 11332 11333    1
   132 15406 15407    1
   133 11183 11182    1
   134 15152 15151    1
   135  8738  8737    1
   136   617   616    1
   137  6698  6697    1
   138 13112 13111    1
   139  1742  1741    1
   140  4769  4768    1
   141  2933  2932    1
   142 18184 18185    1
   143 18184 18186    1
   144  8638  8639    1
   145  8638  8640    1
   146 15052 15053    1
   147 15052 15054    1
   148 13012 13013    1
   149 13012 13014    1
   150 16378 16379    1
   151 16378 16380    1
   152  6598  6599    1
   153  6598  6600    1
   154  9964  9965    1
   155  9964  9966    1
   156 19351 19352    1
   157 19351 19353    1
   158 20125 20126    1
   159 20125 20127    1
   160  8905  8907    1
   161 13279 13281    1
   162 16534 16536    1
   163 10120 10122    1
   164  1843  1845    1
   165  6865  6867    1
   166  3034  3036    1
   167  3727  3729    1
   168 15319 15321    1
   169 10051 10053    1
   170 19441 19443    1
   171  8809  8811    1
   172  6769  6771    1
   173 16465 16467    1
   174 13183 13185    1
   175 20170 20172    1
   176 15223 15225    1
   177 18274 18276    1
   178  6730  6731    1
   179  1765  1766    1
   180  2956  2957    1
   181  4801  4802    1
   182 11215 11216    1
   183 15184 15185    1
   184  8770  8771    1
   185 13144 13145    1
   186   640   641    1
   187   616   618    1
   188  6697  6699    1
   189  4768  4770    1
   190  1741  1743    1
   191 13111 13113    1
   192  2932  2934    1
   193 15151 15153    1
   194 11182 11184    1
   195  8737  8739    1
   196  2954  2953    1
   197 11213 11212    1
   198  4799  4798    1
   199 19418 19417    1
   200   638   637    1
   201 18251 18250    1
   202  8768  8767    1
   203 17153 17152    1
   204  1763  1762    1
   205 15182 15181    1
   206 13142 13141    1
   207  6728  6727    1
   208 19553 19552    1
   209 17225 17224    1
   210 18386 18385    1
   211  4916  4915    1
   212  8990  8989    1
   213 11330 11329    1
   214  6950  6949    1
   215 15404 15403    1
   216 13364 13363    1
   217  8932  8934    1
   218 17200 17202    1
   219 19519 19521    1
   220  4882  4884    1
   221 13306 13308    1
   222 18352 18354    1
   223 11296 11298    1
   224 15346 15348    1
   225  6892  6894    1
   226  3000  2998    1
   227 15261 15259    1
   228 13221 13219    1
   229 16491 16489    1
   230  6807  6805    1
   231  8847  8845    1
   232  1809  1807    1
   233 10077 10075    1
   234  3705  3703    1
   235 13029 13027    1
   236  2889  2887    1
   237 19359 19357    1
   238  6615  6613    1
   239 18192 18190    1
   240 11142 11140    1
   241  4728  4726    1
   242  8655  8653    1
   243 17115 17113    1
   244 15069 15067    1
   245   594   592    1
   246  1698  1696    1
   247 10074 10072    1
   248 19470 19468    1
   249 13218 13216    1
   250  6804  6802    1
   251 18303 18301    1
   252 20190 20188    1
   253 15258 15256    1
   254  8844  8842    1
   255 16488 16486    1
   256  6805  6806    1
   257  1807  1808    1
   258  8845  8846    1
   259  2998  2999    1
   260  3703  3704    1
   261 10075 10076    1
   262 13219 13220    1
   263 15259 15260    1
   264 16489 16490    1
   265 13047 13045    1
   266  8673  8671    1
   267 19365 19363    1
   268  6633  6631    1
   269  4743  4741    1
   270 15087 15085    1
   271 17121 17119    1
   272 18198 18196    1
   273 11157 11155    1
   274   634   636    1
   275   634   635    1
   276 11206 11208    1
   277 11206 11207    1
   278 15175 15177    1
   279 15175 15176    1
   280  8761  8763    1
   281  8761  8762    1
   282 13135 13137    1
   283 13135 13136    1
   284  2950  2952    1
   285  2950  2951    1
   286  1759  1761    1
   287  1759  1760    1
   288  4792  4794    1
   289  4792  4793    1
   290  6721  6723    1
   291  6721  6722    1
   292  6662  6661    1
   293  8702  8701    1
   294  2912  2911    1
   295 15116 15115    1
   296 13076 13075    1
   297  1721  1720    1
   298  3653  3652    1
   299  9992  9991    1
   300 16406 16405    1
   301  8646  8644    1
   302   588   586    1
   303 13020 13018    1
   304  1689  1687    1
   305  4722  4720    1
   306 11136 11134    1
   307 15060 15058    1
   308  6606  6604    1
   309  2880  2878    1
   310 10032 10030    1
   311 20160 20158    1
   312  6750  6748    1
   313 19431 19429    1
   314 15204 15202    1
   315 18264 18262    1
   316 13164 13162    1
   317 16446 16444    1
   318  8790  8788    1
   319  8842  8843    1
   320 20188 20189    1
   321 18301 18302    1
   322 19468 19469    1
   323 13216 13217    1
   324 15256 15257    1
   325 16486 16487    1
   326 10072 10073    1
   327  6802  6803    1
   328  4716  4714    1
   329 17112 17110    1
   330  3636  3634    1
   331 13008 13006    1
   332  8634  8632    1
   333 19350 19348    1
   334  2871  2869    1
   335 11130 11128    1
   336 20124 20122    1
   337  1680  1678    1
   338 15048 15046    1
   339 18183 18181    1
   340   582   580    1
   341 16374 16372    1
   342  6594  6592    1
   343  9960  9958    1
   344  9971  9970    1
   345 15062 15061    1
   346  8648  8647    1
   347  2882  2881    1
   348 20129 20128    1
   349  1691  1690    1
   350 18188 18187    1
   351 19355 19354    1
   352 16385 16384    1
   353  6608  6607    1
   354 13022 13021    1
   355  3644  3643    1
   356 15075 15073    1
   357  2895  2893    1
   358 13035 13033    1
   359  6621  6619    1
   360  4734  4732    1
   361   600   598    1
   362  8661  8659    1
   363 11148 11146    1
   364  1704  1702    1
   365  4798  4800    1
   366  1762  1764    1
   367   637   639    1
   368 15181 15183    1
   369 19417 19419    1
   370 13141 13143    1
   371  6727  6729    1
   372 11212 11214    1
   373  2953  2955    1
   374 17152 17154    1
   375  8767  8769    1
   376 18250 18252    1
   377 15403 15405    1
   378  6949  6951    1
   379 18385 18387    1
   380  8989  8991    1
   381 19552 19554    1
   382 11329 11331    1
   383 13363 13365    1
   384  4915  4917    1
   385 17224 17226    1
   386  1880  1879    1
   387 15395 15394    1
   388 10160 10159    1
   389  6941  6940    1
   390  8981  8980    1
   391 13355 13354    1
   392 16574 16573    1
   393  3749  3748    1
   394  3071  3070    1
   395 19363 19364    1
   396  6631  6632    1
   397 15085 15086    1
   398 11155 11156    1
   399 18196 18197    1
   400  4741  4742    1
   401 17119 17120    1
   402  8671  8672    1
   403 13045 13046    1
   404 20159 20158    1
   405 15203 15202    1
   406 18263 18262    1
   407 13163 13162    1
   408 10031 10030    1
   409 16445 16444    1
   410  8789  8788    1
   411 19430 19429    1
   412  6749  6748    1
   413  3634  3635    1
   414 19348 19349    1
   415 17110 17111    1
   416 15046 15047    1
   417  8632  8633    1
   418  9958  9959    1
   419 18181 18182    1
   420  6592  6593    1
   421  1678  1679    1
   422 13006 13007    1
   423   580   581    1
   424  2869  2870    1
   425 16372 16373    1
   426 20122 20123    1
   427  4714  4715    1
   428 11128 11129    1
   429 13021 13023    1
   430  2881  2883    1
   431  9970  9972    1
   432  3643  3645    1
   433 20128 20130    1
   434  6607  6609    1
   435  1690  1692    1
   436 15061 15063    1
   437 16384 16386    1
   438 19354 19356    1
   439  8647  8649    1
   440 18187 18189    1
   441  4732  4733    1
   442 15073 15074    1
   443 11146 11147    1
   444  6619  6620    1
   445  1702  1703    1
   446  8659  8660    1
   447  2893  2894    1
   448 13033 13034    1
   449   598   599    1
   450 15104 15103    1
   451 16397 16396    1
   452 20135 20134    1
   453  6650  6649    1
   454  8690  8689    1
   455 19373 19372    1
   456 13064 13063    1
   457  9983  9982    1
   458 18206 18205    1
   459  8654  8653    1
   460 19358 19357    1
   461 13028 13027    1
   462  2888  2887    1
   463  1697  1696    1
   464 17114 17113    1
   465 15068 15067    1
   466  4727  4726    1
   467 11141 11140    1
   468   593   592    1
   469 18191 18190    1
   470  6614  6613    1
   471 13077 13075    1
   472  1722  1720    1
   473  6663  6661    1
   474  2913  2911    1
   475  9993  9991    1
   476 15117 15115    1
   477  3654  3652    1
   478  8703  8701    1
   479 16407 16405    1
   480 15353 15352    1
   481 11303 11302    1
   482   686   685    1
   483 13313 13312    1
   484  4889  4888    1
   485  6899  6898    1
   486  1856  1855    1
   487  8939  8938    1
   488  3047  3046    1
   489  1749  1747    1
   490 11196 11194    1
   491  4782  4780    1
   492 13125 13123    1
   493 15165 15163    1
   494  6711  6709    1
   495   624   622    1
   496  2940  2938    1
   497  8751  8749    1
   498  8683  8684    1
   499  8683  8685    1
   500 15097 15098    1
   501 15097 15099    1
   502 19369 19370    1
   503 19369 19371    1
   504  6643  6644    1
   505  6643  6645    1
   506 17122 17123    1
   507 17122 17124    1
   508 11161 11162    1
   509 11161 11163    1
   510  4747  4748    1
   511  4747  4749    1
   512 18202 18203    1
   513 18202 18204    1
   514 13057 13058    1
   515 13057 13059    1
   516 19547 19546    1
   517  3752  3751    1
   518  1883  1882    1
   519  3074  3073    1
   520  8984  8983    1
   521 18380 18379    1
   522 13358 13357    1
   523 20237 20236    1
   524  6944  6943    1
   525 16577 16576    1
   526 10163 10162    1
   527 15398 15397    1
   528 15394 15396    1
   529  1879  1881    1
   530 16573 16575    1
   531 13354 13356    1
   532  6940  6942    1
   533  3070  3072    1
   534 10159 10161    1
   535  3748  3750    1
   536  8980  8982    1
   537 10010 10009    1
   538 15137 15136    1
   539  6683  6682    1
   540  8723  8722    1
   541 13097 13096    1
   542  2927  2926    1
   543  1736  1735    1
   544  3665  3664    1
   545 16424 16423    1
   546  8644  8645    1
   547  2878  2879    1
   548  6604  6605    1
   549 13018 13019    1
   550   586   587    1
   551 11134 11135    1
   552 15058 15059    1
   553  1687  1688    1
   554  4720  4721    1
   555 11302 11304    1
   556   685   687    1
   557 15352 15354    1
   558  1855  1857    1
   559  6898  6900    1
   560  4888  4890    1
   561 13312 13314    1
   562  3046  3048    1
   563  8938  8940    1
   564 11195 11194    1
   565  8750  8749    1
   566   623   622    1
   567  1748  1747    1
   568 13124 13123    1
   569  4781  4780    1
   570  2939  2938    1
   571  6710  6709    1
   572 15164 15163    1
   573 19374 19372    1
   574 16398 16396    1
   575 18207 18205    1
   576  9984  9982    1
   577 20136 20134    1
   578 13065 13063    1
   579 15105 15103    1
   580  8691  8689    1
   581  6651  6649    1
   582  9969  9967    1
   583  8643  8641    1
   584  3642  3640    1
   585 15057 15055    1
   586 13017 13015    1
   587  2877  2875    1
   588 16383 16381    1
   589  1686  1684    1
   590  6603  6601    1
   591   583   584    1
   592   583   585    1
   593  2872  2873    1
   594  2872  2874    1
   595  3637  3638    1
   596  3637  3639    1
   597  6595  6596    1
   598  6595  6597    1
   599  8635  8636    1
   600  8635  8637    1
   601 15049 15050    1
   602 15049 15051    1
   603 13009 13010    1
   604 13009 13011    1
   605  1681  1682    1
   606  1681  1683    1
   607 11131 11132    1
   608 11131 11133    1
   609  9961  9962    1
   610  9961  9963    1
   611  4717  4718    1
   612  4717  4719    1
   613 16375 16376    1
   614 16375 16377    1
   615 19420 19422    1
   616 19420 19421    1
   617 13147 13149    1
   618 13147 13148    1
   619 11218 11220    1
   620 11218 11219    1
   621  6733  6735    1
   622  6733  6734    1
   623 18253 18255    1
   624 18253 18254    1
   625 17155 17157    1
   626 17155 17156    1
   627  4804  4806    1
   628  4804  4805    1
   629 15187 15189    1
   630 15187 15188    1
   631  8773  8775    1
   632  8773  8774    1
   633  6602  6601    1
   634  8642  8641    1
   635 16382 16381    1
   636 13016 13015    1
   637  2876  2875    1
   638  1685  1684    1
   639  9968  9967    1
   640 15056 15055    1
   641  3641  3640    1
   642  6935  6934    1
   643 20234 20233    1
   644 19544 19543    1
   645  8975  8974    1
   646 15389 15388    1
   647 10154 10153    1
   648 16568 16567    1
   649 18377 18376    1
   650 13349 13348    1
   651 11143 11145    1
   652 11143 11144    1
   653   595   597    1
   654   595   596    1
   655  6616  6618    1
   656  6616  6617    1
   657  8656  8658    1
   658  8656  8657    1
   659  1699  1701    1
   660  1699  1700    1
   661 15070 15072    1
   662 15070 15071    1
   663  4729  4731    1
   664  4729  4730    1
   665 13030 13032    1
   666 13030 13031    1
   667  2890  2892    1
   668  2890  2891    1
   669 13079 13078    1
   670 15119 15118    1
   671  1724  1723    1
   672  6665  6664    1
   673  2915  2914    1
   674  8705  8704    1
   675  4760  4759    1
   676 11174 11173    1
   677   611   610    1
   678 13140 13138    1
   679 19416 19414    1
   680  4797  4795    1
   681  8766  8764    1
   682  6726  6724    1
   683 11211 11209    1
   684 15180 15178    1
   685 17151 17149    1
   686 18249 18247    1
   687  6936  6934    1
   688  8976  8974    1
   689 18378 18376    1
   690 15390 15388    1
   691 10155 10153    1
   692 13350 13348    1
   693 20235 20233    1
   694 19545 19543    1
   695 16569 16567    1
   696 19546 19548    1
   697  3751  3753    1
   698 15397 15399    1
   699 16576 16578    1
   700  6943  6945    1
   701 10162 10164    1
   702 13357 13359    1
   703 20236 20238    1
   704 18379 18381    1
   705  8983  8985    1
   706  3073  3075    1
   707  1882  1884    1
   708 13284 13282    1
   709 16539 16537    1
   710  6870  6868    1
   711 10125 10123    1
   712  3732  3730    1
   713  3039  3037    1
   714  8910  8908    1
   715 15324 15322    1
   716  1848  1846    1
   717 16400 16399    1
   718  6653  6652    1
   719 15107 15106    1
   720  9986  9985    1
   721 20138 20137    1
   722  8693  8692    1
   723 13067 13066    1
   724 19376 19375    1
   725 18209 18208    1
   726  9981  9979    1
   727  6642  6640    1
   728 18201 18199    1
   729 19368 19366    1
   730 13056 13054    1
   731 16395 16393    1
   732 20133 20131    1
   733 15096 15094    1
   734  8682  8680    1
   735 13096 13098    1
   736  6682  6684    1
   737  8722  8724    1
   738  3664  3666    1
   739 15136 15138    1
   740 10009 10011    1
   741  1735  1737    1
   742 16423 16425    1
   743  2926  2928    1
   744 19414 19415    1
   745  8764  8765    1
   746 13138 13139    1
   747 17149 17150    1
   748  4795  4796    1
   749 11209 11210    1
   750 15178 15179    1
   751 18247 18248    1
   752  6724  6725    1
   753 10123 10124    1
   754 16537 16538    1
   755  8908  8909    1
   756 15322 15323    1
   757  3037  3038    1
   758  1846  1847    1
   759 13282 13283    1
   760  6868  6869    1
   761  3730  3731    1
   762 16473 16471    1
   763  8817  8815    1
   764 10059 10057    1
   765  6777  6775    1
   766 19449 19447    1
   767 20178 20176    1
   768 13191 13189    1
   769 15231 15229    1
   770 18282 18280    1
   771  8782  8784    1
   772  8782  8783    1
   773  4810  4812    1
   774  4810  4811    1
   775  3673  3675    1
   776  3673  3674    1
   777 18259 18261    1
   778 18259 18260    1
   779  6742  6744    1
   780  6742  6743    1
   781 15196 15198    1
   782 15196 15197    1
   783 13156 13158    1
   784 13156 13157    1
   785   643   645    1
   786   643   644    1
   787  1771  1773    1
   788  1771  1772    1
   789 20155 20157    1
   790 20155 20156    1
   791 16438 16440    1
   792 16438 16439    1
   793  2962  2964    1
   794  2962  2963    1
   795 10024 10026    1
   796 10024 10025    1
   797 11224 11226    1
   798 11224 11225    1
   799 19426 19428    1
   800 19426 19427    1
   801 17161 17163    1
   802 17161 17162    1
   803  1710  1708    1
   804  2901  2899    1
   805  9975  9973    1
   806 15084 15082    1
   807  6630  6628    1
   808 13044 13042    1
   809 16389 16387    1
   810  8670  8668    1
   811  3648  3646    1
   812 17223 17221    1
   813  3078  3076    1
   814 15402 15400    1
   815   699   697    1
   816 11328 11326    1
   817 18384 18382    1
   818  4914  4912    1
   819 19551 19549    1
   820 13362 13360    1
   821  1887  1885    1
   822  6948  6946    1
   823  8988  8986    1
   824 20176 20177    1
   825  8815  8816    1
   826 18280 18281    1
   827 13189 13190    1
   828 10057 10058    1
   829  6775  6776    1
   830 19447 19448    1
   831 16471 16472    1
   832 15229 15230    1
   833  4912  4913    1
   834 19549 19550    1
   835  1885  1886    1
   836  8986  8987    1
   837   697   698    1
   838  3076  3077    1
   839 15400 15401    1
   840  6946  6947    1
   841 13360 13361    1
   842 11326 11327    1
   843 18382 18383    1
   844 17221 17222    1
   845  9989  9988    1
   846  8696  8695    1
   847 18212 18211    1
   848  4754  4753    1
   849 15110 15109    1
   850  6656  6655    1
   851 13070 13069    1
   852 11168 11167    1
   853 17126 17125    1
   854 19379 19378    1
   855 20141 20140    1
   856 16403 16402    1
   857  9990  9988    1
   858  6657  6655    1
   859 11169 11167    1
   860 15111 15109    1
   861 20142 20140    1
   862 13071 13069    1
   863 16404 16402    1
   864 17127 17125    1
   865 19380 19378    1
   866  4755  4753    1
   867  8697  8695    1
   868 18213 18211    1
   869  2914  2916    1
   870  4759  4761    1
   871  1723  1725    1
   872  8704  8706    1
   873 11173 11175    1
   874  6664  6666    1
   875 15118 15120    1
   876   610   612    1
   877 13078 13080    1
   878   605   604    1
   879  6635  6634    1
   880  2903  2902    1
   881  4745  4744    1
   882 11159 11158    1
   883  8675  8674    1
   884  1712  1711    1
   885 13049 13048    1
   886 15089 15088    1
   887 20132 20131    1
   888 18200 18199    1
   889 19367 19366    1
   890  8681  8680    1
   891 15095 15094    1
   892 16394 16393    1
   893 13055 13054    1
   894  9980  9979    1
   895  6641  6640    1
   896 13066 13068    1
   897 19375 19377    1
   898  9985  9987    1
   899 18208 18210    1
   900  8692  8694    1
   901 20137 20139    1
   902 16399 16401    1
   903  6652  6654    1
   904 15106 15108    1
   905  1711  1713    1
   906 13048 13050    1
   907 15088 15090    1
   908  8674  8676    1
   909   604   606    1
   910  2902  2904    1
   911  4744  4746    1
   912 11158 11160    1
   913  6634  6636    1
   914 16559 16558    1
   915 13325 13324    1
   916  3740  3739    1
   917 15365 15364    1
   918 10145 10144    1
   919  3056  3055    1
   920  6911  6910    1
   921  8951  8950    1
   922  1865  1864    1
   923  1851  1849    1
   924  3735  3733    1
   925  3042  3040    1
   926 10137 10135    1
   927 16551 16549    1
   928  6882  6880    1
   929   681   679    1
   930 15336 15334    1
   931 13296 13294    1
   932 11286 11284    1
   933  8922  8920    1
   934  4872  4870    1
   935   589   590    1
   936   589   591    1
   937  4723  4724    1
   938  4723  4725    1
   939  8650  8651    1
   940  8650  8652    1
   941  6610  6611    1
   942  6610  6612    1
   943 13024 13025    1
   944 13024 13026    1
   945  2884  2885    1
   946  2884  2886    1
   947  1693  1694    1
   948  1693  1695    1
   949 15064 15065    1
   950 15064 15066    1
   951 11137 11138    1
   952 11137 11139    1
   953 19524 19522    1
   954  6897  6895    1
   955 11301 11299    1
   956 13311 13309    1
   957  4887  4885    1
   958  8937  8935    1
   959 17205 17203    1
   960 18357 18355    1
   961 15351 15349    1
   962  3733  3734    1
   963  6880  6881    1
   964 11284 11285    1
   965 15334 15335    1
   966  3040  3041    1
   967   679   680    1
   968 16549 16550    1
   969  8920  8921    1
   970  4870  4871    1
   971 10135 10136    1
   972 13294 13295    1
   973  1849  1850    1
   974  3646  3647    1
   975 13042 13043    1
   976  8668  8669    1
   977  6628  6629    1
   978 15082 15083    1
   979  1708  1709    1
   980  2899  2900    1
   981 16387 16388    1
   982  9973  9974    1
   983  8814  8812    1
   984  1794  1792    1
   985  2985  2983    1
   986 13188 13186    1
   987  3696  3694    1
   988 10056 10054    1
   989 18279 18277    1
   990 16470 16468    1
   991  6774  6772    1
   992 15228 15226    1
   993 20175 20173    1
   994 19446 19444    1
   995  4885  4886    1
   996 11299 11300    1
   997  6895  6896    1
   998  8935  8936    1
   999 15349 15350    1
  1000 18355 18356    1
  1001 17203 17204    1
  1002 13309 13310    1
  1003 19522 19523    1
  1004 18320 18319    1
  1005 17183 17182    1
  1006  1829  1828    1
  1007  3020  3019    1
  1008  6842  6841    1
  1009 11270 11269    1
  1010 19487 19486    1
  1011  4856  4855    1
  1012   674   673    1
  1013 15296 15295    1
  1014  8882  8881    1
  1015 13256 13255    1
  1016 18371 18370    1
  1017 11321 11320    1
  1018 15383 15382    1
  1019  6929  6928    1
  1020 17216 17215    1
  1021  8969  8968    1
  1022 19538 19537    1
  1023 13343 13342    1
  1024  4907  4906    1
  1025  8979  8977    1
  1026  6939  6937    1
  1027  3747  3745    1
  1028 10158 10156    1
  1029 15393 15391    1
  1030 16572 16570    1
  1031 13353 13351    1
  1032  3069  3067    1
  1033  1878  1876    1
  1034 13342 13344    1
  1035  8968  8970    1
  1036 18370 18372    1
  1037 19537 19539    1
  1038 17215 17217    1
  1039  6928  6930    1
  1040 11320 11322    1
  1041 15382 15384    1
  1042  4906  4908    1
  1043 13186 13187    1
  1044 16468 16469    1
  1045  3694  3695    1
  1046 10054 10055    1
  1047 15226 15227    1
  1048  6772  6773    1
  1049  2983  2984    1
  1050  1792  1793    1
  1051 19444 19445    1
  1052  8812  8813    1
  1053 18277 18278    1
  1054 20173 20174    1
  1055 18216 18214    1
  1056 11172 11170    1
  1057 13074 13072    1
  1058  4758  4756    1
  1059 19383 19381    1
  1060 17130 17128    1
  1061 15114 15112    1
  1062  6660  6658    1
  1063  8700  8698    1
  1064 13317 13315    1
  1065 15357 15355    1
  1066  6903  6901    1
  1067 11307 11305    1
  1068  4893  4891    1
  1069 18360 18358    1
  1070 19527 19525    1
  1071 17208 17206    1
  1072  8943  8941    1
  1073 13109 13108    1
  1074 15149 15148    1
  1075  8735  8734    1
  1076 10019 10018    1
  1077  6695  6694    1
  1078 16433 16432    1
  1079  3668  3667    1
  1080  1739  1738    1
  1081  2930  2929    1
  1082  1864  1866    1
  1083 10144 10146    1
  1084  8950  8952    1
  1085  3055  3057    1
  1086 16558 16560    1
  1087  6910  6912    1
  1088 13324 13326    1
  1089  3739  3741    1
  1090 15364 15366    1
  1091 11150 11149    1
  1092 15077 15076    1
  1093  6623  6622    1
  1094 17117 17116    1
  1095  8663  8662    1
  1096 19361 19360    1
  1097  4736  4735    1
  1098 13037 13036    1
  1099 18194 18193    1
  1100 18368 18367    1
  1101  6920  6919    1
  1102 19535 19534    1
  1103  8960  8959    1
  1104 16562 16561    1
  1105 20231 20230    1
  1106 10148 10147    1
  1107 15374 15373    1
  1108 13334 13333    1
  1109 15112 15113    1
  1110 19381 19382    1
  1111 18214 18215    1
  1112  8698  8699    1
  1113 13072 13073    1
  1114 17128 17129    1
  1115  6658  6659    1
  1116  4756  4757    1
  1117 11170 11171    1
  1118 16548 16546    1
  1119 18345 18343    1
  1120 19512 19510    1
  1121 20226 20224    1
  1122  8919  8917    1
  1123 15333 15331    1
  1124 13293 13291    1
  1125 10134 10132    1
  1126  6879  6877    1
  1127 15358 15360    1
  1128 15358 15359    1
  1129  1858  1860    1
  1130  1858  1859    1
  1131 13318 13320    1
  1132 13318 13319    1
  1133  6904  6906    1
  1134  6904  6905    1
  1135  8944  8946    1
  1136  8944  8945    1
  1137   688   690    1
  1138   688   689    1
  1139  4894  4896    1
  1140  4894  4895    1
  1141 11308 11310    1
  1142 11308 11309    1
  1143  3049  3051    1
  1144  3049  3050    1
  1145 13265 13264    1
  1146  6851  6850    1
  1147 16526 16525    1
  1148 11276 11275    1
  1149  4862  4861    1
  1150 15305 15304    1
  1151 10112 10111    1
  1152 18329 18328    1
  1153 17189 17188    1
  1154 20213 20212    1
  1155  8891  8890    1
  1156 19496 19495    1
  1157 15080 15079    1
  1158  4739  4738    1
  1159 13040 13039    1
  1160   602   601    1
  1161  8666  8665    1
  1162  1706  1705    1
  1163  6626  6625    1
  1164 11153 11152    1
  1165  2897  2896    1
  1166 19486 19488    1
  1167 18319 18321    1
  1168  1828  1830    1
  1169 15295 15297    1
  1170  6841  6843    1
  1171   673   675    1
  1172 11269 11271    1
  1173  4855  4857    1
  1174 17182 17184    1
  1175  8881  8883    1
  1176  3019  3021    1
  1177 13255 13257    1
  1178 18289 18290    1
  1179 18289 18291    1
  1180  4825  4826    1
  1181  4825  4827    1
  1182 11239 11240    1
  1183 11239 11241    1
  1184  8830  8831    1
  1185  8830  8832    1
  1186 19456 19457    1
  1187 19456 19458    1
  1188 15244 15245    1
  1189 15244 15246    1
  1190 17164 17165    1
  1191 17164 17166    1
  1192  6790  6791    1
  1193  6790  6792    1
  1194 13204 13205    1
  1195 13204 13206    1
  1196 13352 13351    1
  1197 10157 10156    1
  1198  6938  6937    1
  1199  1877  1876    1
  1200 15392 15391    1
  1201  3746  3745    1
  1202  3068  3067    1
  1203 16571 16570    1
  1204  8978  8977    1
  1205 19360 19362    1
  1206  6622  6624    1
  1207 15076 15078    1
  1208 17116 17118    1
  1209 11149 11151    1
  1210  4735  4737    1
  1211 18193 18195    1
  1212 13036 13038    1
  1213  8662  8664    1
  1214  6793  6795    1
  1215  6793  6794    1
  1216   658   660    1
  1217   658   659    1
  1218  2995  2997    1
  1219  2995  2996    1
  1220  1804  1806    1
  1221  1804  1805    1
  1222  4828  4830    1
  1223  4828  4829    1
  1224 17167 17169    1
  1225 17167 17168    1
  1226 13207 13209    1
  1227 13207 13208    1
  1228  8833  8835    1
  1229  8833  8834    1
  1230 18292 18294    1
  1231 18292 18293    1
  1232 19459 19461    1
  1233 19459 19460    1
  1234 15247 15249    1
  1235 15247 15248    1
  1236 11242 11244    1
  1237 11242 11243    1
  1238 13082 13081    1
  1239 19385 19384    1
  1240  6668  6667    1
  1241 18218 18217    1
  1242 15122 15121    1
  1243  8708  8707    1
  1244 20144 20143    1
  1245 16409 16408    1
  1246  9995  9994    1
  1247  1833  1831    1
  1248 13260 13258    1
  1249  8886  8884    1
  1250 20208 20206    1
  1251  3024  3022    1
  1252 16521 16519    1
  1253 18324 18322    1
  1254  6846  6844    1
  1255  3720  3718    1
  1256 15300 15298    1
  1257 19491 19489    1
  1258 10107 10105    1
  1259  6877  6878    1
  1260 13291 13292    1
  1261 15331 15332    1
  1262 19510 19511    1
  1263 20224 20225    1
  1264 18343 18344    1
  1265 10132 10133    1
  1266 16546 16547    1
  1267  8917  8918    1
  1268 15386 15385    1
  1269 18374 18373    1
  1270  6932  6931    1
  1271  4910  4909    1
  1272 17219 17218    1
  1273  8972  8971    1
  1274 11324 11323    1
  1275 19541 19540    1
  1276 13346 13345    1
  1277  1832  1831    1
  1278 20207 20206    1
  1279  6845  6844    1
  1280  3719  3718    1
  1281 19490 19489    1
  1282  8885  8884    1
  1283 16520 16519    1
  1284 10106 10105    1
  1285 15299 15298    1
  1286 13259 13258    1
  1287 18323 18322    1
  1288  3023  3022    1
  1289 15199 15201    1
  1290 15199 15200    1
  1291  1774  1776    1
  1292  1774  1775    1
  1293 13159 13161    1
  1294 13159 13160    1
  1295 10027 10029    1
  1296 10027 10028    1
  1297 11227 11229    1
  1298 11227 11228    1
  1299  6745  6747    1
  1300  6745  6746    1
  1301  3676  3678    1
  1302  3676  3677    1
  1303   646   648    1
  1304   646   647    1
  1305  8785  8787    1
  1306  8785  8786    1
  1307 16441 16443    1
  1308 16441 16442    1
  1309  4813  4815    1
  1310  4813  4814    1
  1311  2965  2967    1
  1312  2965  2966    1
  1313 18217 18219    1
  1314  9994  9996    1
  1315 16408 16410    1
  1316 20143 20145    1
  1317 13081 13083    1
  1318 19384 19386    1
  1319 15121 15123    1
  1320  6667  6669    1
  1321  8707  8709    1
  1322 20230 20232    1
  1323 19534 19536    1
  1324  8734  8736    1
  1325  8959  8961    1
  1326  2929  2931    1
  1327 16561 16563    1
  1328  1738  1740    1
  1329 13108 13110    1
  1330 18367 18369    1
  1331  6919  6921    1
  1332  3667  3669    1
  1333 15373 15375    1
  1334 13333 13335    1
  1335 15148 15150    1
  1336 10018 10020    1
  1337  6694  6696    1
  1338 10147 10149    1
  1339 16432 16434    1
  1340 13052 13051    1
  1341  2906  2905    1
  1342 15092 15091    1
  1343  9977  9976    1
  1344  3650  3649    1
  1345  8678  8677    1
  1346  1715  1714    1
  1347  6638  6637    1
  1348 16391 16390    1
  1349 13315 13316    1
  1350 18358 18359    1
  1351 17206 17207    1
  1352 15355 15356    1
  1353  6901  6902    1
  1354  4891  4892    1
  1355  8941  8942    1
  1356 11305 11306    1
  1357 19525 19526    1
  1358 16525 16527    1
  1359 20212 20214    1
  1360 17188 17190    1
  1361 18328 18330    1
  1362  8890  8892    1
  1363 10111 10113    1
  1364 15304 15306    1
  1365 19495 19497    1
  1366 11275 11277    1
  1367  4861  4863    1
  1368  6850  6852    1
  1369 13264 13266    1
  1370 11325 11323    1
  1371  8973  8971    1
  1372 19542 19540    1
  1373 18375 18373    1
  1374 13347 13345    1
  1375  6933  6931    1
  1376 17220 17218    1
  1377  4911  4909    1
  1378 15387 15385    1
  1379  2907  2905    1
  1380 13053 13051    1
  1381 16392 16390    1
  1382  6639  6637    1
  1383  1716  1714    1
  1384  9978  9976    1
  1385  3651  3649    1
  1386  8679  8677    1
  1387 15093 15091    1
  1388 10152 10150    1
  1389  6927  6925    1
  1390 13341 13339    1
  1391  3744  3742    1
  1392  8967  8965    1
  1393  3066  3064    1
  1394 16566 16564    1
  1395  1875  1873    1
  1396 15381 15379    1
  1397   603   601    1
  1398  2898  2896    1
  1399  8667  8665    1
  1400  6627  6625    1
  1401 15081 15079    1
  1402 11154 11152    1
  1403 13041 13039    1
  1404  4740  4738    1
  1405  1707  1705    1
  1406 19464 19462    1
  1407 11247 11245    1
  1408 18297 18295    1
  1409  8838  8836    1
  1410  4833  4831    1
  1411  6798  6796    1
  1412 13212 13210    1
  1413 17172 17170    1
  1414 15252 15250    1
  1415  4773  4771    1
  1416 19401 19399    1
  1417 18234 18232    1
  1418 13116 13114    1
  1419 17136 17134    1
  1420 11187 11185    1
  1421  2937  2935    1
  1422  1746  1744    1
  1423 15156 15154    1
  1424  6702  6700    1
  1425  8742  8740    1
  1426   621   619    1
  1427 16530 16528    1
  1428  1836  1834    1
  1429 15309 15307    1
  1430  3723  3721    1
  1431 13269 13267    1
  1432  3027  3025    1
  1433 10116 10114    1
  1434  8895  8893    1
  1435  6855  6853    1
  1436  8808  8806    1
  1437  6768  6766    1
  1438 20169 20167    1
  1439 10050 10048    1
  1440 13182 13180    1
  1441 18273 18271    1
  1442 16464 16462    1
  1443 19440 19438    1
  1444 15222 15220    1
  1445 20228 20227    1
  1446  4874  4873    1
  1447 19514 19513    1
  1448 10139 10138    1
  1449 13298 13297    1
  1450 11288 11287    1
  1451 17195 17194    1
  1452 16553 16552    1
  1453 18347 18346    1
  1454  8924  8923    1
  1455 15338 15337    1
  1456  6884  6883    1
  1457 18295 18296    1
  1458  8836  8837    1
  1459 19462 19463    1
  1460 13210 13211    1
  1461 17170 17171    1
  1462 15250 15251    1
  1463  6796  6797    1
  1464  4831  4832    1
  1465 11245 11246    1
  1466 15154 15155    1
  1467 11185 11186    1
  1468  2935  2936    1
  1469 17134 17135    1
  1470  4771  4772    1
  1471  1744  1745    1
  1472  8740  8741    1
  1473 13114 13115    1
  1474 19399 19400    1
  1475   619   620    1
  1476  6700  6701    1
  1477 18232 18233    1
  1478  6925  6926    1
  1479 15379 15380    1
  1480  3064  3065    1
  1481  1873  1874    1
  1482 10150 10151    1
  1483  8965  8966    1
  1484  3742  3743    1
  1485 13339 13340    1
  1486 16564 16565    1
  1487  8728  8730    1
  1488  8728  8729    1
  1489 15142 15144    1
  1490 15142 15143    1
  1491 16429 16431    1
  1492 16429 16430    1
  1493 18226 18228    1
  1494 18226 18227    1
  1495 20152 20154    1
  1496 20152 20153    1
  1497 10015 10017    1
  1498 10015 10016    1
  1499 13102 13104    1
  1500 13102 13103    1
  1501  6688  6690    1
  1502  6688  6689    1
  1503 19393 19395    1
  1504 19393 19394    1
  1505  6705  6703    1
  1506 18237 18235    1
  1507 17139 17137    1
  1508  8745  8743    1
  1509 13119 13117    1
  1510 15159 15157    1
  1511 19404 19402    1
  1512 11190 11188    1
  1513  4776  4774    1
  1514 13268 13267    1
  1515  6854  6853    1
  1516 10115 10114    1
  1517 15308 15307    1
  1518  3722  3721    1
  1519  1835  1834    1
  1520 16529 16528    1
  1521  3026  3025    1
  1522  8894  8893    1
  1523 20179 20181    1
  1524 20179 20180    1
  1525 13192 13194    1
  1526 13192 13193    1
  1527 18283 18285    1
  1528 18283 18284    1
  1529 10060 10062    1
  1530 10060 10061    1
  1531  6778  6780    1
  1532  6778  6779    1
  1533 16474 16476    1
  1534 16474 16475    1
  1535 19450 19452    1
  1536 19450 19451    1
  1537  8818  8820    1
  1538  8818  8819    1
  1539 15232 15234    1
  1540 15232 15233    1
  1541 19505 19504    1
  1542 10127 10126    1
  1543  6872  6871    1
  1544 20219 20218    1
  1545 18338 18337    1
  1546 16541 16540    1
  1547 15326 15325    1
  1548 13286 13285    1
  1549  8912  8911    1
  1550  8889  8887    1
  1551 18327 18325    1
  1552 15303 15301    1
  1553 19494 19492    1
  1554 11274 11272    1
  1555 13263 13261    1
  1556 20211 20209    1
  1557 16524 16522    1
  1558 10110 10108    1
  1559  6849  6847    1
  1560  4860  4858    1
  1561 17187 17185    1
  1562 13171 13173    1
  1563 13171 13172    1
  1564  3685  3687    1
  1565  3685  3686    1
  1566  4816  4818    1
  1567  4816  4817    1
  1568  8797  8799    1
  1569  8797  8798    1
  1570  2974  2976    1
  1571  2974  2975    1
  1572 10039 10041    1
  1573 10039 10040    1
  1574 16453 16455    1
  1575 16453 16454    1
  1576 15211 15213    1
  1577 15211 15212    1
  1578  6757  6759    1
  1579  6757  6758    1
  1580  1783  1785    1
  1581  1783  1784    1
  1582   649   651    1
  1583   649   650    1
  1584 11230 11232    1
  1585 11230 11231    1
  1586 13181 13180    1
  1587  6767  6766    1
  1588 10049 10048    1
  1589  8807  8806    1
  1590 20168 20167    1
  1591 16463 16462    1
  1592 19439 19438    1
  1593 15221 15220    1
  1594 18272 18271    1
  1595 10013 10012    1
  1596  6686  6685    1
  1597 20150 20149    1
  1598 18224 18223    1
  1599 13100 13099    1
  1600 19391 19390    1
  1601 15140 15139    1
  1602  8726  8725    1
  1603 16427 16426    1
  1604  3660  3658    1
  1605  2922  2920    1
  1606   615   613    1
  1607 11178 11176    1
  1608 16416 16414    1
  1609 15129 15127    1
  1610 10002 10000    1
  1611  6675  6673    1
  1612  1731  1729    1
  1613  4764  4762    1
  1614 13089 13087    1
  1615  8715  8713    1
  1616 16554 16552    1
  1617 20229 20227    1
  1618 17196 17194    1
  1619 18348 18346    1
  1620 19515 19513    1
  1621  8925  8923    1
  1622 10140 10138    1
  1623 15339 15337    1
  1624 13299 13297    1
  1625  6885  6883    1
  1626  4875  4873    1
  1627 11289 11287    1
  1628 13278 13276    1
  1629  1842  1840    1
  1630 16533 16531    1
  1631 20217 20215    1
  1632  6864  6862    1
  1633  3726  3724    1
  1634 15318 15316    1
  1635 10119 10117    1
  1636  8904  8902    1
  1637 19503 19501    1
  1638  3033  3031    1
  1639 18336 18334    1
  1640  3724  3725    1
  1641 16531 16532    1
  1642  3031  3032    1
  1643 20215 20216    1
  1644 18334 18335    1
  1645 15316 15317    1
  1646 13276 13277    1
  1647  8902  8903    1
  1648  1840  1841    1
  1649 19501 19502    1
  1650 10117 10118    1
  1651  6862  6863    1
  1652  4858  4859    1
  1653 11272 11273    1
  1654 17185 17186    1
  1655 19492 19493    1
  1656 16522 16523    1
  1657 20209 20210    1
  1658 15301 15302    1
  1659 18325 18326    1
  1660  8887  8888    1
  1661 10108 10109    1
  1662 13261 13262    1
  1663  6847  6848    1
  1664  8713  8714    1
  1665  3658  3659    1
  1666 15127 15128    1
  1667  6673  6674    1
  1668 16414 16415    1
  1669   613   614    1
  1670  2920  2921    1
  1671 11176 11177    1
  1672  1729  1730    1
  1673  4762  4763    1
  1674 13087 13088    1
  1675 10000 10001    1
  1676  2944  2946    1
  1677  2944  2945    1
  1678 15169 15171    1
  1679 15169 15170    1
  1680  8755  8757    1
  1681  8755  8756    1
  1682   628   630    1
  1683   628   629    1
  1684 13129 13131    1
  1685 13129 13130    1
  1686 11200 11202    1
  1687 11200 11201    1
  1688  4786  4788    1
  1689  4786  4787    1
  1690  1753  1755    1
  1691  1753  1754    1
  1692  6715  6717    1
  1693  6715  6716    1
  1694 11267 11266    1
  1695  3017  3016    1
  1696  8879  8878    1
  1697   671   670    1
  1698 15293 15292    1
  1699  4853  4852    1
  1700 13253 13252    1
  1701  6839  6838    1
  1702  1826  1825    1
  1703  3014  3013    1
  1704  6830  6829    1
  1705  1823  1822    1
  1706 11258 11257    1
  1707   668   667    1
  1708 15284 15283    1
  1709  8870  8869    1
  1710 13244 13243    1
  1711  4844  4843    1
  1712 18269 18268    1
  1713 16460 16459    1
  1714  8804  8803    1
  1715 19436 19435    1
  1716 13178 13177    1
  1717 20165 20164    1
  1718  3692  3691    1
  1719  2981  2980    1
  1720 10046 10045    1
  1721  1790  1789    1
  1722  6764  6763    1
  1723 15218 15217    1
  1724  4774  4775    1
  1725  8743  8744    1
  1726 17137 17138    1
  1727 11188 11189    1
  1728 15157 15158    1
  1729 18235 18236    1
  1730 19402 19403    1
  1731 13117 13118    1
  1732  6703  6704    1
  1733 15235 15237    1
  1734 15235 15236    1
  1735  1795  1797    1
  1736  1795  1796    1
  1737 11236 11238    1
  1738 11236 11237    1
  1739 13195 13197    1
  1740 13195 13196    1
  1741  2986  2988    1
  1742  2986  2987    1
  1743  6781  6783    1
  1744  6781  6782    1
  1745   655   657    1
  1746   655   656    1
  1747  4822  4824    1
  1748  4822  4823    1
  1749  8821  8823    1
  1750  8821  8822    1
  1751 13285 13287    1
  1752  6871  6873    1
  1753 10126 10128    1
  1754  8911  8913    1
  1755 19504 19506    1
  1756 15325 15327    1
  1757 20218 20220    1
  1758 16540 16542    1
  1759 18337 18339    1
  1760  6738  6736    1
  1761  4809  4807    1
  1762 13152 13150    1
  1763 17160 17158    1
  1764 19425 19423    1
  1765 15192 15190    1
  1766 11223 11221    1
  1767 18258 18256    1
  1768  8778  8776    1
  1769  6831  6829    1
  1770 11259 11257    1
  1771  4845  4843    1
  1772   669   667    1
  1773  1824  1822    1
  1774  8871  8869    1
  1775  3015  3013    1
  1776 13245 13243    1
  1777 15285 15283    1
  1778 11315 11314    1
  1779 18365 18364    1
  1780 13331 13330    1
  1781  4901  4900    1
  1782  6917  6916    1
  1783  8957  8956    1
  1784 15371 15370    1
  1785 19532 19531    1
  1786 17213 17212    1
  1787  6923  6922    1
  1788   695   694    1
  1789  1871  1870    1
  1790 15377 15376    1
  1791  3062  3061    1
  1792  4904  4903    1
  1793 13337 13336    1
  1794  8963  8962    1
  1795 11318 11317    1
  1796 19433 19432    1
  1797  1778  1777    1
  1798 13166 13165    1
  1799 16448 16447    1
  1800 20162 20161    1
  1801 15206 15205    1
  1802  2969  2968    1
  1803  3680  3679    1
  1804 18266 18265    1
  1805  6752  6751    1
  1806  8792  8791    1
  1807 10034 10033    1
  1808 18268 18270    1
  1809  1789  1791    1
  1810  6763  6765    1
  1811 16459 16461    1
  1812 13177 13179    1
  1813 20164 20166    1
  1814 10045 10047    1
  1815  3691  3693    1
  1816 19435 19437    1
  1817  8803  8805    1
  1818  2980  2982    1
  1819 15217 15219    1
  1820  8712  8710    1
  1821 16413 16411    1
  1822  2919  2917    1
  1823 15126 15124    1
  1824  1728  1726    1
  1825 13086 13084    1
  1826  6672  6670    1
  1827  9999  9997    1
  1828  3657  3655    1
  1829  2991  2989    1
  1830  3699  3697    1
  1831  6786  6784    1
  1832 15240 15238    1
  1833  1800  1798    1
  1834 10065 10063    1
  1835  8826  8824    1
  1836 13200 13198    1
  1837 16479 16477    1
  1838 11260 11262    1
  1839 11260 11261    1
  1840  4846  4848    1
  1841  4846  4847    1
  1842 19480 19482    1
  1843 19480 19481    1
  1844 20200 20202    1
  1845 20200 20201    1
  1846 10099 10101    1
  1847 10099 10100    1
  1848 18313 18315    1
  1849 18313 18314    1
  1850  6832  6834    1
  1851  6832  6833    1
  1852  8872  8874    1
  1853  8872  8873    1
  1854 16513 16515    1
  1855 16513 16514    1
  1856 15286 15288    1
  1857 15286 15287    1
  1858 13246 13248    1
  1859 13246 13247    1
  1860 17176 17178    1
  1861 17176 17177    1
  1862 10021 10023    1
  1863 10021 10022    1
  1864  6739  6741    1
  1865  6739  6740    1
  1866 16435 16437    1
  1867 16435 16436    1
  1868  3670  3672    1
  1869  3670  3671    1
  1870  8779  8781    1
  1871  8779  8780    1
  1872  1768  1770    1
  1873  1768  1769    1
  1874  2959  2961    1
  1875  2959  2960    1
  1876 15193 15195    1
  1877 15193 15194    1
  1878 13153 13155    1
  1879 13153 13154    1
  1880 16506 16504    1
  1881 13236 13234    1
  1882  1818  1816    1
  1883  8862  8860    1
  1884  3714  3712    1
  1885 15276 15274    1
  1886  3009  3007    1
  1887  6822  6820    1
  1888 10092 10090    1
  1889  6685  6687    1
  1890 13099 13101    1
  1891 16426 16428    1
  1892 10012 10014    1
  1893  8725  8727    1
  1894 15139 15141    1
  1895 18223 18225    1
  1896 20149 20151    1
  1897 19390 19392    1
  1898 13165 13167    1
  1899  2968  2970    1
  1900 20161 20163    1
  1901  8791  8793    1
  1902  6751  6753    1
  1903  1777  1779    1
  1904 15205 15207    1
  1905 19432 19434    1
  1906 16447 16449    1
  1907 10033 10035    1
  1908  3679  3681    1
  1909 18265 18267    1
  1910  6840  6838    1
  1911 15294 15292    1
  1912  3018  3016    1
  1913 11268 11266    1
  1914  8880  8878    1
  1915   672   670    1
  1916  1827  1825    1
  1917  4854  4852    1
  1918 13254 13252    1
  1919  3043  3044    1
  1920  3043  3045    1
  1921 13300 13301    1
  1922 13300 13302    1
  1923 15340 15341    1
  1924 15340 15342    1
  1925  8926  8927    1
  1926  8926  8928    1
  1927  1852  1853    1
  1928  1852  1854    1
  1929  6886  6887    1
  1930  6886  6888    1
  1931 11290 11291    1
  1932 11290 11292    1
  1933  4876  4877    1
  1934  4876  4878    1
  1935   682   683    1
  1936   682   684    1
  1937 17212 17214    1
  1938 11314 11316    1
  1939  4900  4902    1
  1940 15370 15372    1
  1941  8956  8958    1
  1942  6916  6918    1
  1943 19531 19533    1
  1944 18364 18366    1
  1945 13330 13332    1
  1946  8825  8824    1
  1947 16478 16477    1
  1948  6785  6784    1
  1949 15239 15238    1
  1950  2990  2989    1
  1951  1799  1798    1
  1952 13199 13198    1
  1953  3698  3697    1
  1954 10064 10063    1
  1955  8732  8731    1
  1956 17132 17131    1
  1957 15146 15145    1
  1958 13106 13105    1
  1959  4766  4765    1
  1960  6692  6691    1
  1961 18230 18229    1
  1962 11180 11179    1
  1963 19397 19396    1
  1964  6922  6924    1
  1965 11317 11319    1
  1966  8962  8964    1
  1967 15376 15378    1
  1968   694   696    1
  1969  3061  3063    1
  1970  4903  4905    1
  1971  1870  1872    1
  1972 13336 13338    1
  1973  8776  8777    1
  1974  6736  6737    1
  1975 17158 17159    1
  1976 18256 18257    1
  1977 11221 11222    1
  1978 13150 13151    1
  1979 15190 15191    1
  1980  4807  4808    1
  1981 19423 19424    1
  1982  4864  4866    1
  1983  4864  4865    1
  1984  8896  8898    1
  1985  8896  8897    1
  1986   676   678    1
  1987   676   677    1
  1988 15310 15312    1
  1989 15310 15311    1
  1990  1837  1839    1
  1991  1837  1838    1
  1992 11278 11280    1
  1993 11278 11279    1
  1994  3028  3030    1
  1995  3028  3029    1
  1996  6856  6858    1
  1997  6856  6857    1
  1998 13270 13272    1
  1999 13270 13271    1
  2000 19530 19528    1
  2001  6915  6913    1
  2002  1869  1867    1
  2003 11313 11311    1
  2004  8955  8953    1
  2005 18363 18361    1
  2006 15369 15367    1
  2007   693   691    1
  2008 17211 17209    1
  2009  3060  3058    1
  2010 13329 13327    1
  2011  4899  4897    1
  2012  3662  3661    1
  2013 13091 13090    1
  2014  6677  6676    1
  2015 10004 10003    1
  2016  2924  2923    1
  2017  1733  1732    1
  2018 16418 16417    1
  2019 15131 15130    1
  2020  8717  8716    1
  2021  8900  8899    1
  2022 13274 13273    1
  2023  4868  4867    1
  2024 18332 18331    1
  2025 15314 15313    1
  2026  6860  6859    1
  2027 19499 19498    1
  2028 11282 11281    1
  2029 17192 17191    1
  2030  6913  6914    1
  2031 15367 15368    1
  2032  3058  3059    1
  2033  4897  4898    1
  2034  8953  8954    1
  2035   691   692    1
  2036  1867  1868    1
  2037 19528 19529    1
  2038 13327 13328    1
  2039 11311 11312    1
  2040 17209 17210    1
  2041 18361 18362    1
  2042 16411 16412    1
  2043  9997  9998    1
  2044  6670  6671    1
  2045  1726  1727    1
  2046 13084 13085    1
  2047 15124 15125    1
  2048  8710  8711    1
  2049  3655  3656    1
  2050  2917  2918    1
  2051 10091 10090    1
  2052 16505 16504    1
  2053  8861  8860    1
  2054  6821  6820    1
  2055  1817  1816    1
  2056 13235 13234    1
  2057 15275 15274    1
  2058  3713  3712    1
  2059  3008  3007    1
  2060  6859  6861    1
  2061 13273 13275    1
  2062  4867  4869    1
  2063 17191 17193    1
  2064 18331 18333    1
  2065  8899  8901    1
  2066 11281 11283    1
  2067 15313 15315    1
  2068 19498 19500    1
  2069  8754  8752    1
  2070 13128 13126    1
  2071 17145 17143    1
  2072 15168 15166    1
  2073  6714  6712    1
  2074  1752  1750    1
  2075   627   625    1
  2076  4785  4783    1
  2077 19410 19408    1
  2078 11199 11197    1
  2079  2943  2941    1
  2080 18243 18241    1
  2081  8865  8863    1
  2082 19479 19477    1
  2083 15279 15277    1
  2084 16509 16507    1
  2085 20199 20197    1
  2086 18312 18310    1
  2087 10095 10093    1
  2088  6825  6823    1
  2089 13239 13237    1
  2090 16499 16498    1
  2091 13229 13228    1
  2092  6815  6814    1
  2093 15269 15268    1
  2094 19475 19474    1
  2095  8855  8854    1
  2096 10085 10084    1
  2097 20195 20194    1
  2098 18308 18307    1
  2099  1787  1786    1
  2100  2978  2977    1
  2101 13175 13174    1
  2102 10043 10042    1
  2103 16457 16456    1
  2104  8801  8800    1
  2105  4820  4819    1
  2106  3689  3688    1
  2107 15215 15214    1
  2108 11234 11233    1
  2109   653   652    1
  2110  6761  6760    1
  2111 19478 19477    1
  2112 20198 20197    1
  2113 16508 16507    1
  2114 18311 18310    1
  2115  6824  6823    1
  2116 10094 10093    1
  2117  8864  8863    1
  2118 13238 13237    1
  2119 15278 15277    1
  2120 15147 15145    1
  2121 18231 18229    1
  2122 11181 11179    1
  2123 13107 13105    1
  2124  8733  8731    1
  2125  6693  6691    1
  2126  4767  4765    1
  2127 17133 17131    1
  2128 19398 19396    1
  2129 15268 15270    1
  2130 18307 18309    1
  2131 20194 20196    1
  2132 10084 10086    1
  2133  8854  8856    1
  2134  6814  6816    1
  2135 19474 19476    1
  2136 16498 16500    1
  2137 13228 13230    1
  2138 15167 15166    1
  2139 11198 11197    1
  2140  1751  1750    1
  2141  4784  4783    1
  2142  8753  8752    1
  2143 19409 19408    1
  2144   626   625    1
  2145 13127 13126    1
  2146 18242 18241    1
  2147  6713  6712    1
  2148 17144 17143    1
  2149  2942  2941    1
  2150 15291 15289    1
  2151 11265 11263    1
  2152  8877  8875    1
  2153 20205 20203    1
  2154 19485 19483    1
  2155 17181 17179    1
  2156 13251 13249    1
  2157  4851  4849    1
  2158  6837  6835    1
  2159 10104 10102    1
  2160 16518 16516    1
  2161 18318 18316    1
  2162 15271 15273    1
  2163 15271 15272    1
  2164  4837  4839    1
  2165  4837  4838    1
  2166  3709  3711    1
  2167  3709  3710    1
  2168 10087 10089    1
  2169 10087 10088    1
  2170 11251 11253    1
  2171 11251 11252    1
  2172   661   663    1
  2173   661   662    1
  2174  1813  1815    1
  2175  1813  1814    1
  2176  3004  3006    1
  2177  3004  3005    1
  2178  8857  8859    1
  2179  8857  8858    1
  2180 13231 13233    1
  2181 13231 13232    1
  2182 16501 16503    1
  2183 16501 16502    1
  2184  6817  6819    1
  2185  6817  6818    1
  2186 11192 11191    1
  2187  4778  4777    1
  2188 18239 18238    1
  2189 13121 13120    1
  2190  8747  8746    1
  2191 15161 15160    1
  2192 19406 19405    1
  2193 17141 17140    1
  2194  6707  6706    1
  2195 13092 13090    1
  2196  1734  1732    1
  2197 16419 16417    1
  2198 15132 15130    1
  2199 10005 10003    1
  2200  3663  3661    1
  2201  6678  6676    1
  2202  2925  2923    1
  2203  8718  8716    1
  2204 15361 15363    1
  2205 15361 15362    1
  2206  8947  8949    1
  2207  8947  8948    1
  2208 10141 10143    1
  2209 10141 10142    1
  2210  6907  6909    1
  2211  6907  6908    1
  2212  3736  3738    1
  2213  3736  3737    1
  2214 13321 13323    1
  2215 13321 13322    1
  2216  1861  1863    1
  2217  1861  1862    1
  2218  3052  3054    1
  2219  3052  3053    1
  2220 16555 16557    1
  2221 16555 16556    1
  2222  8931  8929    1
  2223 11295 11293    1
  2224 19518 19516    1
  2225 18351 18349    1
  2226  6891  6889    1
  2227 15345 15343    1
  2228 17199 17197    1
  2229  4881  4879    1
  2230 13305 13303    1
  2231   701   700    1
  2232  4922  4921    1
  2233 15413 15412    1
  2234 13373 13372    1
  2235  6959  6958    1
  2236  8999  8998    1
  2237  3083  3082    1
  2238 11336 11335    1
  2239  1892  1891    1
  2240  8852  8851    1
  2241 10082 10081    1
  2242 15266 15265    1
  2243 16496 16495    1
  2244 20192 20191    1
  2245 19472 19471    1
  2246 18305 18304    1
  2247 13226 13225    1
  2248  6812  6811    1
  2249  4777  4779    1
  2250 11191 11193    1
  2251 15160 15162    1
  2252 18238 18240    1
  2253  6706  6708    1
  2254 13120 13122    1
  2255  8746  8748    1
  2256 19405 19407    1
  2257 17140 17142    1
  2258  1788  1786    1
  2259  2979  2977    1
  2260  8802  8800    1
  2261  3690  3688    1
  2262 15216 15214    1
  2263  4821  4819    1
  2264 13176 13174    1
  2265   654   652    1
  2266 16458 16456    1
  2267 11235 11233    1
  2268 10044 10042    1
  2269  6762  6760    1
  2270 15414 15412    1
  2271  4923  4921    1
  2272   702   700    1
  2273 13374 13372    1
  2274  6960  6958    1
  2275  3084  3082    1
  2276  9000  8998    1
  2277 11337 11335    1
  2278  1893  1891    1
  2279 17180 17179    1
  2280 18317 18316    1
  2281 20204 20203    1
  2282 16517 16516    1
  2283  8876  8875    1
  2284  6836  6835    1
  2285 13250 13249    1
  2286 15290 15289    1
  2287 11264 11263    1
  2288  4850  4849    1
  2289 10103 10102    1
  2290 19484 19483    1
  2291 10167 10165    1
  2292  1890  1888    1
  2293 15411 15409    1
  2294  3756  3754    1
  2295 19560 19558    1
  2296  8997  8995    1
  2297  3081  3079    1
  2298 16581 16579    1
  2299 18393 18391    1
  2300 20241 20239    1
  2301  6957  6955    1
  2302 13371 13369    1
  2303  1801  1803    1
  2304  1801  1802    1
  2305 16480 16482    1
  2306 16480 16481    1
  2307  2992  2994    1
  2308  2992  2993    1
  2309  3700  3702    1
  2310  3700  3701    1
  2311 10066 10068    1
  2312 10066 10067    1
  2313 13201 13203    1
  2314 13201 13202    1
  2315 18286 18288    1
  2316 18286 18287    1
  2317 20182 20184    1
  2318 20182 20183    1
  2319  8827  8829    1
  2320  8827  8828    1
  2321 19453 19455    1
  2322 19453 19454    1
  2323 15241 15243    1
  2324 15241 15242    1
  2325  6787  6789    1
  2326  6787  6788    1
  2327  6889  6890    1
  2328 11293 11294    1
  2329 17197 17198    1
  2330 19516 19517    1
  2331 15343 15344    1
  2332  4879  4880    1
  2333 18349 18350    1
  2334 13303 13304    1
  2335  8929  8930    1
  2336  3012  3010    1
  2337 11256 11254    1
  2338 16512 16510    1
  2339  6828  6826    1
  2340 13242 13240    1
  2341 10098 10096    1
  2342  1821  1819    1
  2343  8868  8866    1
  2344   666   664    1
  2345  3717  3715    1
  2346  4842  4840    1
  2347 15282 15280    1
  2348 13379 13378    1
  2349 20243 20242    1
  2350  6965  6964    1
  2351 16583 16582    1
  2352 19565 19564    1
  2353 10169 10168    1
  2354 18398 18397    1
  2355 15419 15418    1
  2356  9005  9004    1
  2357 19389 19387    1
  2358 18222 18220    1
  2359 15135 15133    1
  2360  6681  6679    1
  2361 13095 13093    1
  2362  8721  8719    1
  2363 16422 16420    1
  2364 10008 10006    1
  2365 20148 20146    1
  2366  2757  2755    1
  2367   522   520    1
  2368 11007 11005    1
  2369 14838 14836    1
  2370  4593  4591    1
  2371  8424  8422    1
  2372  6384  6382    1
  2373  1566  1564    1
  2374 12798 12796    1
  2375  1574  1573    1
  2376  2765  2764    1
  2377  6398  6397    1
  2378 11018 11017    1
  2379  4604  4603    1
  2380 14852 14851    1
  2381 12812 12811    1
  2382  8438  8437    1
  2383   527   526    1
  2384 15280 15281    1
  2385  6826  6827    1
  2386  1819  1820    1
  2387 10096 10097    1
  2388 11254 11255    1
  2389 16510 16511    1
  2390  8866  8867    1
  2391  3010  3011    1
  2392  4840  4841    1
  2393  3715  3716    1
  2394   664   665    1
  2395 13240 13241    1
  2396 19564 19566    1
  2397 15418 15420    1
  2398 10168 10170    1
  2399 13378 13380    1
  2400 18397 18399    1
  2401  6964  6966    1
  2402 16582 16584    1
  2403  9004  9006    1
  2404 20242 20244    1
  2405 10081 10083    1
  2406 16495 16497    1
  2407  6811  6813    1
  2408 20191 20193    1
  2409  8851  8853    1
  2410 19471 19473    1
  2411 15265 15267    1
  2412 13225 13227    1
  2413 18304 18306    1
  2414 10078 10079    1
  2415 10078 10080    1
  2416 16492 16493    1
  2417 16492 16494    1
  2418  1810  1811    1
  2419  1810  1812    1
  2420  6808  6809    1
  2421  6808  6810    1
  2422  3706  3707    1
  2423  3706  3708    1
  2424 13222 13223    1
  2425 13222 13224    1
  2426  3001  3002    1
  2427  3001  3003    1
  2428  8848  8849    1
  2429  8848  8850    1
  2430 15262 15263    1
  2431 15262 15264    1
  2432 13369 13370    1
  2433  3754  3755    1
  2434  6955  6956    1
  2435 16579 16580    1
  2436 18391 18392    1
  2437 15409 15410    1
  2438 20239 20240    1
  2439  1888  1889    1
  2440  8995  8996    1
  2441 19558 19559    1
  2442  3079  3080    1
  2443 10165 10166    1
  2444  2947  2949    1
  2445  2947  2948    1
  2446 19411 19413    1
  2447 19411 19412    1
  2448  1756  1758    1
  2449  1756  1757    1
  2450  6718  6720    1
  2451  6718  6719    1
  2452 15172 15174    1
  2453 15172 15173    1
  2454   631   633    1
  2455   631   632    1
  2456  4789  4791    1
  2457  4789  4790    1
  2458 17146 17148    1
  2459 17146 17147    1
  2460 11203 11205    1
  2461 11203 11204    1
  2462 18244 18246    1
  2463 18244 18245    1
  2464 13132 13134    1
  2465 13132 13133    1
  2466  8758  8760    1
  2467  8758  8759    1
  2468  8514  8512    1
  2469  1614  1612    1
  2470  2805  2803    1
  2471  6474  6472    1
  2472 12888 12886    1
  2473   549   547    1
  2474 11058 11056    1
  2475 14928 14926    1
  2476  4644  4642    1
  2477 19563 19561    1
  2478  9003  9001    1
  2479  4926  4924    1
  2480 18396 18394    1
  2481 11340 11338    1
  2482  6963  6961    1
  2483 15417 15415    1
  2484 17232 17230    1
  2485 13377 13375    1
  2486  6153  6151    1
  2487   441   439    1
  2488 10884 10882    1
  2489 12567 12565    1
  2490  8193  8191    1
  2491  1419  1417    1
  2492  2610  2608    1
  2493 14607 14605    1
  2494  4470  4468    1
  2495 15415 15416    1
  2496 17230 17231    1
  2497  4924  4925    1
  2498 18394 18395    1
  2499  9001  9002    1
  2500 19561 19562    1
  2501 13375 13376    1
  2502 11338 11339    1
  2503  6961  6962    1
  2504  6679  6680    1
  2505 13093 13094    1
  2506  8719  8720    1
  2507 20146 20147    1
  2508 15133 15134    1
  2509 18220 18221    1
  2510 19387 19388    1
  2511 16420 16421    1
  2512 10006 10007    1
  2513  9825  9823    1
  2514  1539  1537    1
  2515  8379  8377    1
  2516 19203 19201    1
  2517 18036 18034    1
  2518 14793 14791    1
  2519  3558  3556    1
  2520 20046 20044    1
  2521  6339  6337    1
  2522 16239 16237    1
  2523 12753 12751    1
  2524  2730  2728    1
  2525 17021 17020    1
  2526  9842  9841    1
  2527  8399  8398    1
  2528 12773 12772    1
  2529 10985 10984    1
  2530  2744  2743    1
  2531  6359  6358    1
  2532  4571  4570    1
  2533 14813 14812    1
  2534 18044 18043    1
  2535   512   511    1
  2536  1553  1552    1
  2537  3569  3568    1
  2538 19211 19210    1
  2539 20054 20053    1
  2540 16256 16255    1
  2541 12811 12813    1
  2542  6397  6399    1
  2543 14851 14853    1
  2544  8437  8439    1
  2545   526   528    1
  2546  1573  1575    1
  2547  2764  2766    1
  2548  4603  4605    1
  2549 11017 11019    1
  2550  2755  2756    1
  2551  1564  1565    1
  2552  6382  6383    1
  2553 14836 14837    1
  2554  8422  8423    1
  2555   520   521    1
  2556 11005 11006    1
  2557  4591  4592    1
  2558 12796 12797    1
  2559 16224 16222    1
  2560 14778 14776    1
  2561  8364  8362    1
  2562  2724  2722    1
  2563  9810  9808    1
  2564 12738 12736    1
  2565  6324  6322    1
  2566  1533  1531    1
  2567  3552  3550    1
  2568 12902 12901    1
  2569 11072 11071    1
  2570 14942 14941    1
  2571 19289 19288    1
  2572 17072 17071    1
  2573  6488  6487    1
  2574 18122 18121    1
  2575  8528  8527    1
  2576  4658  4657    1
  2577 19155 19153    1
  2578  8289  8287    1
  2579  9762  9760    1
  2580 12663 12661    1
  2581  6249  6247    1
  2582 16176 16174    1
  2583 20013 20011    1
  2584 14703 14701    1
  2585 17988 17986    1
  2586 16313 16312    1
  2587 20093 20092    1
  2588 19259 19258    1
  2589  9899  9898    1
  2590  6440  6439    1
  2591 18092 18091    1
  2592 14894 14893    1
  2593  8480  8479    1
  2594 12854 12853    1
  2595  8363  8362    1
  2596  1532  1531    1
  2597  9809  9808    1
  2598 16223 16222    1
  2599  6323  6322    1
  2600  2723  2722    1
  2601  3551  3550    1
  2602 12737 12736    1
  2603 14777 14776    1
  2604 14926 14927    1
  2605  2803  2804    1
  2606 12886 12887    1
  2607  1612  1613    1
  2608   547   548    1
  2609  6472  6473    1
  2610 11056 11057    1
  2611  8512  8513    1
  2612  4642  4643    1
  2613 19258 19260    1
  2614 12853 12855    1
  2615  8479  8481    1
  2616 14893 14895    1
  2617 16312 16314    1
  2618 20092 20094    1
  2619  9898  9900    1
  2620 18091 18093    1
  2621  6439  6441    1
  2622 14605 14606    1
  2623  8191  8192    1
  2624 12565 12566    1
  2625   439   440    1
  2626 10882 10883    1
  2627  4468  4469    1
  2628  2608  2609    1
  2629  6151  6152    1
  2630  1417  1418    1
  2631  9841  9843    1
  2632   511   513    1
  2633  3568  3570    1
  2634 17020 17022    1
  2635 19210 19212    1
  2636 20053 20055    1
  2637 16255 16257    1
  2638  6358  6360    1
  2639 18043 18045    1
  2640 10984 10986    1
  2641  2743  2745    1
  2642  8398  8400    1
  2643  1552  1554    1
  2644 12772 12774    1
  2645 14812 14814    1
  2646  4570  4572    1
  2647 11071 11073    1
  2648 19288 19290    1
  2649  6487  6489    1
  2650  4657  4659    1
  2651 14941 14943    1
  2652 12901 12903    1
  2653  8527  8529    1
  2654 18121 18123    1
  2655 17071 17073    1
  2656  2693  2692    1
  2657 14735 14734    1
  2658 19172 19171    1
  2659  1502  1501    1
  2660 18005 18004    1
  2661  6281  6280    1
  2662  8321  8320    1
  2663 12695 12694    1
  2664  9785  9784    1
  2665 20024 20023    1
  2666  3533  3532    1
  2667 16199 16198    1
  2668 18081 18079    1
  2669  9885  9883    1
  2670 12840 12838    1
  2671  6426  6424    1
  2672 14880 14878    1
  2673 20082 20080    1
  2674 19248 19246    1
  2675 16299 16297    1
  2676  8466  8464    1
  2677  2771  2770    1
  2678   530   529    1
  2679 14858 14857    1
  2680 12818 12817    1
  2681  8444  8443    1
  2682  1580  1579    1
  2683 11021 11020    1
  2684  4607  4606    1
  2685  6404  6403    1
  2686 12720 12718    1
  2687   495   493    1
  2688  9795  9793    1
  2689  3540  3538    1
  2690  6306  6304    1
  2691 16209 16207    1
  2692 10968 10966    1
  2693  1518  1516    1
  2694  8346  8344    1
  2695  2709  2707    1
  2696 14760 14758    1
  2697  4554  4552    1
  2698 18034 18035    1
  2699  8377  8378    1
  2700  6337  6338    1
  2701 20044 20045    1
  2702 14791 14792    1
  2703  9823  9824    1
  2704  1537  1538    1
  2705 16237 16238    1
  2706 19201 19202    1
  2707 12751 12752    1
  2708  2728  2729    1
  2709  3556  3557    1
  2710  8511  8509    1
  2711  1611  1609    1
  2712   546   544    1
  2713 12885 12883    1
  2714  4641  4639    1
  2715 14925 14923    1
  2716 11055 11053    1
  2717  6471  6469    1
  2718  2802  2800    1
  2719 12489 12487    1
  2720  6075  6073    1
  2721  4422  4420    1
  2722 10836 10834    1
  2723 17880 17878    1
  2724 16944 16942    1
  2725 14529 14527    1
  2726 19047 19045    1
  2727  8115  8113    1
  2728 20080 20081    1
  2729 18079 18080    1
  2730 12838 12839    1
  2731  9883  9884    1
  2732 19246 19247    1
  2733  8464  8465    1
  2734  6424  6425    1
  2735 14878 14879    1
  2736 16297 16298    1
  2737 17878 17879    1
  2738  4420  4421    1
  2739 10834 10835    1
  2740  6073  6074    1
  2741 14527 14528    1
  2742 12487 12488    1
  2743  8113  8114    1
  2744 16942 16943    1
  2745 19045 19046    1
  2746 11054 11053    1
  2747 12884 12883    1
  2748  2801  2800    1
  2749  4640  4639    1
  2750  6470  6469    1
  2751   545   544    1
  2752  8510  8509    1
  2753 14924 14923    1
  2754  1610  1609    1
  2755 19262 19261    1
  2756 14897 14896    1
  2757  6443  6442    1
  2758 12857 12856    1
  2759 18095 18094    1
  2760 17045 17044    1
  2761  8483  8482    1
  2762  4613  4612    1
  2763 11027 11026    1
  2764  1585  1587    1
  2765  1585  1586    1
  2766  2776  2778    1
  2767  2776  2777    1
  2768  9868  9870    1
  2769  9868  9869    1
  2770 12823 12825    1
  2771 12823 12824    1
  2772  8449  8451    1
  2773  8449  8450    1
  2774  3583  3585    1
  2775  3583  3584    1
  2776  6409  6411    1
  2777  6409  6410    1
  2778 14863 14865    1
  2779 14863 14864    1
  2780 16282 16284    1
  2781 16282 16283    1
  2782  6218  6217    1
  2783  8258  8257    1
  2784 10928 10927    1
  2785 19130 19129    1
  2786 17963 17962    1
  2787 16997 16996    1
  2788 19988 19987    1
  2789 14672 14671    1
  2790  9734  9733    1
  2791  4514  4513    1
  2792 12632 12631    1
  2793 16148 16147    1
  2794  2770  2772    1
  2795 12817 12819    1
  2796 11020 11022    1
  2797  1579  1581    1
  2798  4606  4608    1
  2799  6403  6405    1
  2800  8443  8445    1
  2801   529   531    1
  2802 14857 14859    1
  2803  9760  9761    1
  2804  6247  6248    1
  2805  8287  8288    1
  2806 12661 12662    1
  2807 14701 14702    1
  2808 20011 20012    1
  2809 16174 16175    1
  2810 17986 17987    1
  2811 19153 19154    1
  2812  4552  4553    1
  2813 10966 10967    1
  2814  2707  2708    1
  2815   493   494    1
  2816 12718 12719    1
  2817  8344  8345    1
  2818 16207 16208    1
  2819  3538  3539    1
  2820 14758 14759    1
  2821  6304  6305    1
  2822  9793  9794    1
  2823  1516  1517    1
  2824  9750  9748    1
  2825 16164 16162    1
  2826   474   472    1
  2827  6234  6232    1
  2828  4518  4516    1
  2829  1473  1471    1
  2830  8274  8272    1
  2831  3510  3508    1
  2832 12648 12646    1
  2833  2664  2662    1
  2834 14688 14686    1
  2835 10932 10930    1
  2836 12668 12667    1
  2837  1484  1483    1
  2838  3518  3517    1
  2839  9767  9766    1
  2840  8294  8293    1
  2841 16181 16180    1
  2842 14708 14707    1
  2843  6254  6253    1
  2844  2675  2674    1
  2845  9698  9697    1
  2846 10901 10900    1
  2847  3473  3472    1
  2848 12584 12583    1
  2849 16112 16111    1
  2850  2621  2620    1
  2851  1430  1429    1
  2852  4487  4486    1
  2853  8210  8209    1
  2854   452   451    1
  2855 14624 14623    1
  2856  6170  6169    1
  2857  9829  9831    1
  2858  9829  9830    1
  2859 16243 16245    1
  2860 16243 16244    1
  2861 19204 19206    1
  2862 19204 19205    1
  2863 12757 12759    1
  2864 12757 12758    1
  2865  8383  8385    1
  2866  8383  8384    1
  2867 14797 14799    1
  2868 14797 14798    1
  2869  6343  6345    1
  2870  6343  6344    1
  2871 18037 18039    1
  2872 18037 18038    1
  2873 20047 20049    1
  2874 20047 20048    1
  2875   472   473    1
  2876  4516  4517    1
  2877 12646 12647    1
  2878  2662  2663    1
  2879 10930 10931    1
  2880  9748  9749    1
  2881  6232  6233    1
  2882  1471  1472    1
  2883  8272  8273    1
  2884  3508  3509    1
  2885 14686 14687    1
  2886 16162 16163    1
  2887  1431  1429    1
  2888  4488  4486    1
  2889  3474  3472    1
  2890 10902 10900    1
  2891  8211  8209    1
  2892  2622  2620    1
  2893 16113 16111    1
  2894 12585 12583    1
  2895  9699  9697    1
  2896  6171  6169    1
  2897 14625 14623    1
  2898   453   451    1
  2899  1501  1503    1
  2900  3532  3534    1
  2901  9784  9786    1
  2902 20023 20025    1
  2903 16198 16200    1
  2904  8320  8322    1
  2905 19171 19173    1
  2906  2692  2694    1
  2907  6280  6282    1
  2908 14734 14736    1
  2909 12694 12696    1
  2910 18004 18006    1
  2911 14490 14488    1
  2912  2547  2545    1
  2913  1356  1354    1
  2914  6036  6034    1
  2915  4398  4396    1
  2916 16929 16927    1
  2917 10812 10810    1
  2918   399   397    1
  2919 17859 17857    1
  2920 19026 19024    1
  2921 12450 12448    1
  2922  8076  8074    1
  2923 14786 14785    1
  2924 12746 12745    1
  2925 18032 18031    1
  2926  9818  9817    1
  2927 16232 16231    1
  2928  8372  8371    1
  2929  6332  6331    1
  2930 20042 20041    1
  2931 19199 19198    1
  2932  9689  9688    1
  2933  8141  8140    1
  2934 16103 16102    1
  2935 19061 19060    1
  2936 19967 19966    1
  2937 17894 17893    1
  2938 12515 12514    1
  2939  6101  6100    1
  2940 14555 14554    1
  2941  4612  4614    1
  2942  6442  6444    1
  2943 11026 11028    1
  2944 14896 14898    1
  2945 12856 12858    1
  2946 19261 19263    1
  2947 18094 18096    1
  2948  8482  8484    1
  2949 17044 17046    1
  2950 19987 19989    1
  2951  4513  4515    1
  2952 16147 16149    1
  2953 17962 17964    1
  2954  6217  6219    1
  2955  8257  8259    1
  2956 14671 14673    1
  2957  9733  9735    1
  2958 10927 10929    1
  2959 16996 16998    1
  2960 19129 19131    1
  2961 12631 12633    1
  2962 10969 10971    1
  2963 10969 10970    1
  2964  6307  6309    1
  2965  6307  6308    1
  2966   496   498    1
  2967   496   497    1
  2968 12721 12723    1
  2969 12721 12722    1
  2970  1519  1521    1
  2971  1519  1520    1
  2972  8347  8349    1
  2973  8347  8348    1
  2974  4555  4557    1
  2975  4555  4556    1
  2976  2710  2712    1
  2977  2710  2711    1
  2978 14761 14763    1
  2979 14761 14762    1
  2980  6253  6255    1
  2981 14707 14709    1
  2982  3517  3519    1
  2983  8293  8295    1
  2984 16180 16182    1
  2985  9766  9768    1
  2986 12667 12669    1
  2987  1483  1485    1
  2988  2674  2676    1
  2989 12516 12514    1
  2990 16104 16102    1
  2991  6102  6100    1
  2992 19062 19060    1
  2993  9690  9688    1
  2994 19968 19966    1
  2995  8142  8140    1
  2996 17895 17893    1
  2997 14556 14554    1
  2998 19024 19025    1
  2999 14488 14489    1
  3000 12448 12449    1
  3001   397   398    1
  3002 16927 16928    1
  3003  1354  1355    1
  3004  6034  6035    1
  3005  2545  2546    1
  3006  8074  8075    1
  3007  4396  4397    1
  3008 17857 17858    1
  3009 10810 10811    1
  3010 12615 12613    1
  3011 14655 14653    1
  3012 17955 17953    1
  3013  8241  8239    1
  3014 16995 16993    1
  3015 10920 10918    1
  3016 19122 19120    1
  3017  6201  6199    1
  3018  4506  4504    1
  3019 16031 16030    1
  3020  2537  2536    1
  3021 14465 14464    1
  3022  6011  6010    1
  3023  8051  8050    1
  3024  3437  3436    1
  3025 12425 12424    1
  3026  9617  9616    1
  3027  1346  1345    1
  3028 16281 16279    1
  3029 20076 20074    1
  3030 12822 12820    1
  3031  9867  9865    1
  3032  3582  3580    1
  3033  2775  2773    1
  3034 14862 14860    1
  3035  8448  8446    1
  3036 19242 19240    1
  3037 18075 18073    1
  3038  6408  6406    1
  3039  1584  1582    1
  3040  3527  3526    1
  3041  8309  8308    1
  3042  6269  6268    1
  3043  9779  9778    1
  3044  2687  2686    1
  3045 14723 14722    1
  3046 12683 12682    1
  3047 16193 16192    1
  3048  1496  1495    1
  3049 16233 16231    1
  3050 14787 14785    1
  3051  9819  9817    1
  3052 18033 18031    1
  3053 20043 20041    1
  3054  8373  8371    1
  3055  6333  6331    1
  3056 12747 12745    1
  3057 19200 19198    1
  3058 17954 17953    1
  3059 16994 16993    1
  3060  6200  6199    1
  3061  8240  8239    1
  3062 19121 19120    1
  3063 10919 10918    1
  3064 14654 14653    1
  3065  4505  4504    1
  3066 12614 12613    1
  3067  9950  9949    1
  3068  3629  3628    1
  3069 12995 12994    1
  3070  6581  6580    1
  3071  2864  2863    1
  3072 16364 16363    1
  3073  1673  1672    1
  3074 15035 15034    1
  3075  8621  8620    1
  3076  1428  1426    1
  3077  2619  2617    1
  3078 12579 12577    1
  3079 17934 17932    1
  3080  4482  4480    1
  3081  6165  6163    1
  3082   450   448    1
  3083 16980 16978    1
  3084 14619 14617    1
  3085 10896 10894    1
  3086 19101 19099    1
  3087  8205  8203    1
  3088 19949 19948    1
  3089  4415  4414    1
  3090  9653  9652    1
  3091 10829 10828    1
  3092 16940 16939    1
  3093 14516 14515    1
  3094 19040 19039    1
  3095 17873 17872    1
  3096  8102  8101    1
  3097 12476 12475    1
  3098  6062  6061    1
  3099 16067 16066    1
  3100 15020 15019    1
  3101  4703  4702    1
  3102 12980 12979    1
  3103  8606  8605    1
  3104  6566  6565    1
  3105   572   571    1
  3106 11117 11116    1
  3107  2852  2851    1
  3108  1661  1660    1
  3109 17872 17874    1
  3110  6061  6063    1
  3111 19039 19041    1
  3112 10828 10830    1
  3113 14515 14517    1
  3114 19948 19950    1
  3115 12475 12477    1
  3116 16066 16068    1
  3117  8101  8103    1
  3118 16939 16941    1
  3119  4414  4416    1
  3120  9652  9654    1
  3121 14617 14618    1
  3122   448   449    1
  3123 16978 16979    1
  3124 19099 19100    1
  3125 12577 12578    1
  3126  8203  8204    1
  3127 17932 17933    1
  3128 10894 10895    1
  3129  4480  4481    1
  3130  2617  2618    1
  3131  6163  6164    1
  3132  1426  1427    1
  3133  8605  8607    1
  3134 12979 12981    1
  3135  4702  4704    1
  3136  6565  6567    1
  3137   571   573    1
  3138 11116 11118    1
  3139 15019 15021    1
  3140  2851  2853    1
  3141  1660  1662    1
  3142  2648  2647    1
  3143 16136 16135    1
  3144 12620 12619    1
  3145  6206  6205    1
  3146 19982 19981    1
  3147  3494  3493    1
  3148  1457  1456    1
  3149  9722  9721    1
  3150 14660 14659    1
  3151  8246  8245    1
  3152 19124 19123    1
  3153 17957 17956    1
  3154 12687 12685    1
  3155  2691  2689    1
  3156 16197 16195    1
  3157  3531  3529    1
  3158  6273  6271    1
  3159  1500  1498    1
  3160  8313  8311    1
  3161 14727 14725    1
  3162  9783  9781    1
  3163  8434  8435    1
  3164  8434  8436    1
  3165 19234 19235    1
  3166 19234 19236    1
  3167  6394  6395    1
  3168  6394  6396    1
  3169 14848 14849    1
  3170 14848 14850    1
  3171 11014 11015    1
  3172 11014 11016    1
  3173 12808 12809    1
  3174 12808 12810    1
  3175 18067 18068    1
  3176 18067 18069    1
  3177  4600  4601    1
  3178  4600  4602    1
  3179 17041 17042    1
  3180 17041 17043    1
  3181  8502  8500    1
  3182  1608  1606    1
  3183 11046 11044    1
  3184 14916 14914    1
  3185  2799  2797    1
  3186  6462  6460    1
  3187  4632  4630    1
  3188 12876 12874    1
  3189   543   541    1
  3190  2705  2704    1
  3191  4544  4543    1
  3192 10958 10957    1
  3193 14750 14749    1
  3194  1514  1513    1
  3195  8336  8335    1
  3196 12710 12709    1
  3197   491   490    1
  3198  6296  6295    1
  3199 16254 16252    1
  3200 14808 14806    1
  3201  8394  8392    1
  3202  9840  9838    1
  3203  4566  4564    1
  3204 12768 12766    1
  3205  6354  6352    1
  3206   507   505    1
  3207 10980 10978    1
  3208  2739  2737    1
  3209  1548  1546    1
  3210  3567  3565    1
  3211  8308  8310    1
  3212  3526  3528    1
  3213 12682 12684    1
  3214 16192 16194    1
  3215  6268  6270    1
  3216 14722 14724    1
  3217  9778  9780    1
  3218  1495  1497    1
  3219  2686  2688    1
  3220 14860 14861    1
  3221  3580  3581    1
  3222  6406  6407    1
  3223 20074 20075    1
  3224 12820 12821    1
  3225  9865  9866    1
  3226 19240 19241    1
  3227  8446  8447    1
  3228 18073 18074    1
  3229  1582  1583    1
  3230  2773  2774    1
  3231 16279 16280    1
  3232  2704  2706    1
  3233  1513  1515    1
  3234  6295  6297    1
  3235 14749 14751    1
  3236   490   492    1
  3237 12709 12711    1
  3238 10957 10959    1
  3239  8335  8337    1
  3240  4543  4545    1
  3241  2536  2538    1
  3242 14464 14466    1
  3243  9616  9618    1
  3244 12424 12426    1
  3245  6010  6012    1
  3246  8050  8052    1
  3247  1345  1347    1
  3248  3436  3438    1
  3249 16030 16032    1
  3250 20017 20019    1
  3251 20017 20018    1
  3252 14713 14715    1
  3253 14713 14714    1
  3254 12673 12675    1
  3255 12673 12674    1
  3256  8299  8301    1
  3257  8299  8300    1
  3258  9769  9771    1
  3259  9769  9770    1
  3260 16183 16185    1
  3261 16183 16184    1
  3262 17992 17994    1
  3263 17992 17993    1
  3264  6259  6261    1
  3265  6259  6260    1
  3266 19159 19161    1
  3267 19159 19160    1
  3268  6580  6582    1
  3269  3628  3630    1
  3270  2863  2865    1
  3271  9949  9951    1
  3272 15034 15036    1
  3273  8620  8622    1
  3274 12994 12996    1
  3275 16363 16365    1
  3276  1672  1674    1
  3277  3631  3633    1
  3278  3631  3632    1
  3279  2866  2868    1
  3280  2866  2867    1
  3281 15037 15039    1
  3282 15037 15038    1
  3283 12997 12999    1
  3284 12997 12998    1
  3285  1675  1677    1
  3286  1675  1676    1
  3287  8623  8625    1
  3288  8623  8624    1
  3289 16366 16368    1
  3290 16366 16367    1
  3291  9952  9954    1
  3292  9952  9953    1
  3293  6583  6585    1
  3294  6583  6584    1
  3295 18126 18124    1
  3296 17076 17074    1
  3297 11076 11074    1
  3298 12906 12904    1
  3299  4662  4660    1
  3300  8532  8530    1
  3301  6492  6490    1
  3302 14946 14944    1
  3303 19293 19291    1
  3304 14944 14945    1
  3305  4660  4661    1
  3306 12904 12905    1
  3307 18124 18125    1
  3308 17074 17075    1
  3309  8530  8531    1
  3310 11074 11075    1
  3311  6490  6491    1
  3312 19291 19292    1
  3313 16135 16137    1
  3314  6205  6207    1
  3315  2647  2649    1
  3316  1456  1458    1
  3317 12619 12621    1
  3318 19981 19983    1
  3319  3493  3495    1
  3320 19123 19125    1
  3321 14659 14661    1
  3322  9721  9723    1
  3323 17956 17958    1
  3324  8245  8247    1
  3325  1398  1396    1
  3326 16959 16957    1
  3327 10857 10855    1
  3328  2589  2587    1
  3329 12540 12538    1
  3330  6126  6124    1
  3331 19080 19078    1
  3332   420   418    1
  3333 17913 17911    1
  3334  4443  4441    1
  3335 14580 14578    1
  3336  8166  8164    1
  3337 16252 16253    1
  3338 10978 10979    1
  3339  3565  3566    1
  3340  2737  2738    1
  3341  8392  8393    1
  3342   505   506    1
  3343  4564  4565    1
  3344  6352  6353    1
  3345 14806 14807    1
  3346  1546  1547    1
  3347 12766 12767    1
  3348  9838  9839    1
  3349  1658  1657    1
  3350  3623  3622    1
  3351  6563  6562    1
  3352  9941  9940    1
  3353 15017 15016    1
  3354 16355 16354    1
  3355  2849  2848    1
  3356  8603  8602    1
  3357 12977 12976    1
  3358  6278  6277    1
  3359  4532  4531    1
  3360 10946 10945    1
  3361 17006 17005    1
  3362 14732 14731    1
  3363 12692 12691    1
  3364  8318  8317    1
  3365 18002 18001    1
  3366 19169 19168    1
  3367  1607  1606    1
  3368 11045 11044    1
  3369   542   541    1
  3370  6461  6460    1
  3371 12875 12874    1
  3372  2798  2797    1
  3373 14915 14914    1
  3374  4631  4630    1
  3375  8501  8500    1
  3376  6427  6428    1
  3377  6427  6429    1
  3378  9886  9887    1
  3379  9886  9888    1
  3380 14881 14882    1
  3381 14881 14883    1
  3382 18082 18083    1
  3383 18082 18084    1
  3384 12841 12842    1
  3385 12841 12843    1
  3386 19249 19250    1
  3387 19249 19251    1
  3388 20083 20084    1
  3389 20083 20085    1
  3390 16300 16301    1
  3391 16300 16302    1
  3392  8467  8468    1
  3393  8467  8469    1
  3394  6096  6094    1
  3395 17892 17890    1
  3396 19965 19963    1
  3397  9684  9682    1
  3398 19059 19057    1
  3399 12510 12508    1
  3400 14550 14548    1
  3401 16098 16096    1
  3402  8136  8134    1
  3403  4353  4351    1
  3404  5961  5959    1
  3405  2502  2500    1
  3406 12375 12373    1
  3407  8001  7999    1
  3408 14415 14413    1
  3409  1311  1309    1
  3410 10767 10765    1
  3411   366   364    1
  3412  2843  2842    1
  3413   566   565    1
  3414  8591  8590    1
  3415 12965 12964    1
  3416 15005 15004    1
  3417 11105 11104    1
  3418  1652  1651    1
  3419  4691  4690    1
  3420  6551  6550    1
  3421  8311  8312    1
  3422  2689  2690    1
  3423 12685 12686    1
  3424  1498  1499    1
  3425 16195 16196    1
  3426  6271  6272    1
  3427  3529  3530    1
  3428 14725 14726    1
  3429  9781  9782    1
  3430  6559  6560    1
  3431  6559  6561    1
  3432  8599  8600    1
  3433  8599  8601    1
  3434 11113 11114    1
  3435 11113 11115    1
  3436 19333 19334    1
  3437 19333 19335    1
  3438 17104 17105    1
  3439 17104 17106    1
  3440 18166 18167    1
  3441 18166 18168    1
  3442 12973 12974    1
  3443 12973 12975    1
  3444 15013 15014    1
  3445 15013 15015    1
  3446  4699  4700    1
  3447  4699  4701    1
  3448  1396  1397    1
  3449  6124  6125    1
  3450   418   419    1
  3451  2587  2588    1
  3452 14578 14579    1
  3453  4441  4442    1
  3454 19078 19079    1
  3455 16957 16958    1
  3456 12538 12539    1
  3457 10855 10856    1
  3458  8164  8165    1
  3459 17911 17912    1
  3460  4503  4501    1
  3461 17949 17947    1
  3462 14649 14647    1
  3463   465   463    1
  3464  2640  2638    1
  3465  8235  8233    1
  3466 16992 16990    1
  3467 12609 12607    1
  3468  6195  6193    1
  3469  1449  1447    1
  3470 10917 10915    1
  3471 19116 19114    1
  3472 17890 17891    1
  3473  9682  9683    1
  3474 19057 19058    1
  3475 14548 14549    1
  3476  8134  8135    1
  3477 12508 12509    1
  3478 16096 16097    1
  3479  6094  6095    1
  3480 19963 19964    1
  3481 19137 19135    1
  3482  9741  9739    1
  3483 16155 16153    1
  3484 14679 14677    1
  3485  8265  8263    1
  3486 12639 12637    1
  3487  6225  6223    1
  3488 19995 19993    1
  3489 17970 17968    1
  3490 14643 14641    1
  3491  1446  1444    1
  3492  6189  6187    1
  3493  9711  9709    1
  3494 12603 12601    1
  3495  8229  8227    1
  3496  3486  3484    1
  3497 16125 16123    1
  3498  2637  2635    1
  3499  6562  6564    1
  3500  9940  9942    1
  3501  1657  1659    1
  3502  3622  3624    1
  3503 16354 16356    1
  3504  8602  8604    1
  3505  2848  2850    1
  3506 15016 15018    1
  3507 12976 12978    1
  3508   567   565    1
  3509 12966 12964    1
  3510  4692  4690    1
  3511  1653  1651    1
  3512  8592  8590    1
  3513  2844  2842    1
  3514  6552  6550    1
  3515 15006 15004    1
  3516 11106 11104    1
  3517  8317  8319    1
  3518  4531  4533    1
  3519 18001 18003    1
  3520 19168 19170    1
  3521 17005 17007    1
  3522 12691 12693    1
  3523  6277  6279    1
  3524 10945 10947    1
  3525 14731 14733    1
  3526  3485  3484    1
  3527 16124 16123    1
  3528  1445  1444    1
  3529  6188  6187    1
  3530  2636  2635    1
  3531 12602 12601    1
  3532 14642 14641    1
  3533  9710  9709    1
  3534  8228  8227    1
  3535 12608 12607    1
  3536  4502  4501    1
  3537  1448  1447    1
  3538 17948 17947    1
  3539 10916 10915    1
  3540  2639  2638    1
  3541 16991 16990    1
  3542  6194  6193    1
  3543   464   463    1
  3544 19115 19114    1
  3545  8234  8233    1
  3546 14648 14647    1
  3547  8000  7999    1
  3548 14414 14413    1
  3549  4352  4351    1
  3550   365   364    1
  3551 12374 12373    1
  3552  2501  2500    1
  3553  1310  1309    1
  3554  5960  5959    1
  3555 10766 10765    1
  3556  6135  6133    1
  3557 12549 12547    1
  3558 10866 10864    1
  3559  4452  4450    1
  3560 17916 17914    1
  3561 19083 19081    1
  3562 16962 16960    1
  3563  8175  8173    1
  3564 14589 14587    1
  3565 18114 18112    1
  3566  4647  4645    1
  3567  8517  8515    1
  3568 19281 19279    1
  3569 17064 17062    1
  3570 14931 14929    1
  3571 12891 12889    1
  3572 11061 11059    1
  3573  6477  6475    1
  3574  6223  6224    1
  3575  9739  9740    1
  3576 19135 19136    1
  3577 19993 19994    1
  3578 16153 16154    1
  3579  8263  8264    1
  3580 17968 17969    1
  3581 12637 12638    1
  3582 14677 14678    1
  3583 16361 16360    1
  3584 15029 15028    1
  3585  6575  6574    1
  3586 18173 18172    1
  3587 20117 20116    1
  3588  9947  9946    1
  3589 12989 12988    1
  3590  8615  8614    1
  3591 19340 19339    1
  3592  9665  9664    1
  3593  4424  4423    1
  3594 14531 14530    1
  3595 16079 16078    1
  3596   410   409    1
  3597  8117  8116    1
  3598  1376  1375    1
  3599  3458  3457    1
  3600  2567  2566    1
  3601 10838 10837    1
  3602 12491 12490    1
  3603  6077  6076    1
  3604  4645  4646    1
  3605 19279 19280    1
  3606 18112 18113    1
  3607 17062 17063    1
  3608 14929 14930    1
  3609  8515  8516    1
  3610  6475  6476    1
  3611 12889 12890    1
  3612 11059 11060    1
  3613 14772 14770    1
  3614  3546  3544    1
  3615  8358  8356    1
  3616  2718  2716    1
  3617 12732 12730    1
  3618 16218 16216    1
  3619  6318  6316    1
  3620  9804  9802    1
  3621  1527  1525    1
  3622  4425  4423    1
  3623  6078  6076    1
  3624 12492 12490    1
  3625  8118  8116    1
  3626   411   409    1
  3627 10839 10837    1
  3628  9666  9664    1
  3629  1377  1375    1
  3630  2568  2566    1
  3631 16080 16078    1
  3632 14532 14530    1
  3633  3459  3457    1
  3634  8174  8173    1
  3635  6134  6133    1
  3636 12548 12547    1
  3637 16961 16960    1
  3638 17915 17914    1
  3639 14588 14587    1
  3640 19082 19081    1
  3641 10865 10864    1
  3642  4451  4450    1
  3643 16934 16933    1
  3644 19943 19942    1
  3645 14495 14494    1
  3646 12455 12454    1
  3647  4403  4402    1
  3648 19031 19030    1
  3649  6041  6040    1
  3650  9638  9637    1
  3651 17864 17863    1
  3652 10817 10816    1
  3653  8081  8080    1
  3654 16052 16051    1
  3655 19001 19000    1
  3656 16022 16021    1
  3657  9608  9607    1
  3658  8036  8035    1
  3659 12410 12409    1
  3660 19922 19921    1
  3661 17834 17833    1
  3662  5996  5995    1
  3663 14450 14449    1
  3664 15030 15028    1
  3665 20118 20116    1
  3666 16362 16360    1
  3667  9948  9946    1
  3668 12990 12988    1
  3669  8616  8614    1
  3670  6576  6574    1
  3671 18174 18172    1
  3672 19341 19339    1
  3673  3441  3439    1
  3674  6033  6031    1
  3675  9633  9631    1
  3676 12447 12445    1
  3677   396   394    1
  3678 16047 16045    1
  3679 19023 19021    1
  3680  2544  2542    1
  3681 16926 16924    1
  3682 10809 10807    1
  3683  8073  8071    1
  3684 14487 14485    1
  3685  1353  1351    1
  3686  4395  4393    1
  3687 19938 19936    1
  3688 17856 17854    1
  3689 12731 12730    1
  3690 16217 16216    1
  3691  6317  6316    1
  3692  1526  1525    1
  3693  9803  9802    1
  3694  2717  2716    1
  3695  8357  8356    1
  3696 14771 14770    1
  3697  3545  3544    1
  3698 19021 19022    1
  3699  6031  6032    1
  3700  1351  1352    1
  3701 16045 16046    1
  3702 12445 12446    1
  3703  8071  8072    1
  3704  4393  4394    1
  3705 17854 17855    1
  3706   394   395    1
  3707  2542  2543    1
  3708 14485 14486    1
  3709  3439  3440    1
  3710 19936 19937    1
  3711  9631  9632    1
  3712 16924 16925    1
  3713 10807 10808    1
  3714 16316 16315    1
  3715  4616  4615    1
  3716  6446  6445    1
  3717 12860 12859    1
  3718  8486  8485    1
  3719 20096 20095    1
  3720 17048 17047    1
  3721 19265 19264    1
  3722  9902  9901    1
  3723 18098 18097    1
  3724 11030 11029    1
  3725 14900 14899    1
  3726  2517  2515    1
  3727 10779 10777    1
  3728  1326  1324    1
  3729  4365  4363    1
  3730  5979  5977    1
  3731 14433 14431    1
  3732   378   376    1
  3733 12393 12391    1
  3734  8019  8017    1
  3735 18014 18013    1
  3736 14747 14746    1
  3737 16202 16201    1
  3738  8333  8332    1
  3739  9788  9787    1
  3740 12707 12706    1
  3741 19181 19180    1
  3742  1511  1510    1
  3743  6293  6292    1
  3744  2702  2701    1
  3745 20027 20026    1
  3746  3536  3535    1
  3747 12391 12392    1
  3748  5977  5978    1
  3749 10777 10778    1
  3750  8017  8018    1
  3751 14431 14432    1
  3752   376   377    1
  3753  1324  1325    1
  3754  4363  4364    1
  3755  2515  2516    1
  3756  6283  6284    1
  3757  6283  6285    1
  3758  8323  8324    1
  3759  8323  8325    1
  3760 12697 12698    1
  3761 12697 12699    1
  3762  2695  2696    1
  3763  2695  2697    1
  3764  4534  4535    1
  3765  4534  4536    1
  3766 10948 10949    1
  3767 10948 10950    1
  3768  1504  1505    1
  3769  1504  1506    1
  3770   484   485    1
  3771   484   486    1
  3772 14737 14738    1
  3773 14737 14739    1
  3774  1665  1663    1
  3775   576   574    1
  3776 12984 12982    1
  3777  8610  8608    1
  3778 15024 15022    1
  3779  4707  4705    1
  3780 11121 11119    1
  3781  6570  6568    1
  3782  2856  2854    1
  3783 12512 12511    1
  3784 14552 14551    1
  3785  6098  6097    1
  3786  2576  2575    1
  3787  1385  1384    1
  3788  3467  3466    1
  3789 16100 16099    1
  3790  9686  9685    1
  3791  8138  8137    1
  3792 19000 19002    1
  3793 17833 17835    1
  3794  5995  5997    1
  3795 16021 16023    1
  3796 14449 14451    1
  3797 12409 12411    1
  3798  8035  8037    1
  3799 19921 19923    1
  3800  9607  9609    1
  3801 18097 18099    1
  3802  8485  8487    1
  3803  6445  6447    1
  3804  4615  4617    1
  3805  9901  9903    1
  3806 20095 20097    1
  3807 16315 16317    1
  3808 12859 12861    1
  3809 11029 11031    1
  3810 17047 17049    1
  3811 19264 19266    1
  3812 14899 14901    1
  3813 10933 10934    1
  3814 10933 10935    1
  3815 14689 14690    1
  3816 14689 14691    1
  3817   475   476    1
  3818   475   477    1
  3819  3511  3512    1
  3820  3511  3513    1
  3821  2665  2666    1
  3822  2665  2667    1
  3823 20002 20003    1
  3824 20002 20004    1
  3825  1474  1475    1
  3826  1474  1476    1
  3827 19144 19145    1
  3828 19144 19146    1
  3829 16999 17000    1
  3830 16999 17001    1
  3831 12649 12650    1
  3832 12649 12651    1
  3833  4519  4520    1
  3834  4519  4521    1
  3835  6235  6236    1
  3836  6235  6237    1
  3837  9751  9752    1
  3838  9751  9753    1
  3839 17977 17978    1
  3840 17977 17979    1
  3841  8275  8276    1
  3842  8275  8277    1
  3843 16165 16166    1
  3844 16165 16167    1
  3845 17863 17865    1
  3846 16051 16053    1
  3847 19030 19032    1
  3848 19942 19944    1
  3849  4402  4404    1
  3850 14494 14496    1
  3851  9637  9639    1
  3852 16933 16935    1
  3853  6040  6042    1
  3854  8080  8082    1
  3855 10816 10818    1
  3856 12454 12456    1
  3857  6243  6241    1
  3858  2673  2671    1
  3859  1482  1480    1
  3860   480   478    1
  3861 14697 14695    1
  3862  8283  8281    1
  3863 12657 12655    1
  3864 10938 10936    1
  3865  4524  4522    1
  3866  1663  1664    1
  3867  2854  2855    1
  3868  8608  8609    1
  3869 11119 11120    1
  3870 15022 15023    1
  3871 12982 12983    1
  3872   574   575    1
  3873  6568  6569    1
  3874  4705  4706    1
  3875  1384  1386    1
  3876  2575  2577    1
  3877  9685  9687    1
  3878  6097  6099    1
  3879  8137  8139    1
  3880 14551 14553    1
  3881 16099 16101    1
  3882 12511 12513    1
  3883  3466  3468    1
  3884 19930 19931    1
  3885 19930 19932    1
  3886  9625  9626    1
  3887  9625  9627    1
  3888  6025  6026    1
  3889  6025  6027    1
  3890  8065  8066    1
  3891  8065  8067    1
  3892 16039 16040    1
  3893 16039 16041    1
  3894 19015 19016    1
  3895 19015 19017    1
  3896 17848 17849    1
  3897 17848 17850    1
  3898 12439 12440    1
  3899 12439 12441    1
  3900 14479 14480    1
  3901 14479 14481    1
  3902  9876  9874    1
  3903 16290 16288    1
  3904  6417  6415    1
  3905  1593  1591    1
  3906  8457  8455    1
  3907  2784  2782    1
  3908 12831 12829    1
  3909 14871 14869    1
  3910  3591  3589    1
  3911  8269  8271    1
  3912  8269  8270    1
  3913 16159 16161    1
  3914 16159 16160    1
  3915 19999 20001    1
  3916 19999 20000    1
  3917 19141 19143    1
  3918 19141 19142    1
  3919  2659  2661    1
  3920  2659  2660    1
  3921 12643 12645    1
  3922 12643 12644    1
  3923 17974 17976    1
  3924 17974 17975    1
  3925  9745  9747    1
  3926  9745  9746    1
  3927  3505  3507    1
  3928  3505  3506    1
  3929  6229  6231    1
  3930  6229  6230    1
  3931 14683 14685    1
  3932 14683 14684    1
  3933  1468  1470    1
  3934  1468  1469    1
  3935 14744 14743    1
  3936 17012 17011    1
  3937 12704 12703    1
  3938 19178 19177    1
  3939 18011 18010    1
  3940  8330  8329    1
  3941  4541  4540    1
  3942  6290  6289    1
  3943 10955 10954    1
  3944  6241  6242    1
  3945 14695 14696    1
  3946 12655 12656    1
  3947   478   479    1
  3948  2671  2672    1
  3949  4522  4523    1
  3950  8281  8282    1
  3951 10936 10937    1
  3952  1480  1481    1
  3953 12546 12544    1
  3954  2595  2593    1
  3955 14586 14584    1
  3956  8172  8170    1
  3957 10863 10861    1
  3958  6132  6130    1
  3959  1404  1402    1
  3960   426   424    1
  3961  4449  4447    1
  3962 19043 19042    1
  3963  8108  8107    1
  3964  6068  6067    1
  3965 16073 16072    1
  3966 17876 17875    1
  3967  9659  9658    1
  3968 19952 19951    1
  3969 12482 12481    1
  3970 14522 14521    1
  3971 14869 14870    1
  3972  9874  9875    1
  3973 12829 12830    1
  3974  3589  3590    1
  3975  6415  6416    1
  3976  1591  1592    1
  3977  8455  8456    1
  3978 16288 16289    1
  3979  2782  2783    1
  3980  9789  9787    1
  3981 14748 14746    1
  3982 18015 18013    1
  3983  3537  3535    1
  3984 16203 16201    1
  3985  8334  8332    1
  3986 12708 12706    1
  3987  1512  1510    1
  3988  2703  2701    1
  3989 19182 19180    1
  3990  6294  6292    1
  3991 20028 20026    1
  3992  2841  2839    1
  3993  3621  3619    1
  3994  1650  1648    1
  3995  6549  6547    1
  3996  8589  8587    1
  3997  9939  9937    1
  3998 16353 16351    1
  3999 15003 15001    1
  4000 12963 12961    1
  4001 14594 14593    1
  4002  6140  6139    1
  4003 17921 17920    1
  4004  4457  4456    1
  4005 16967 16966    1
  4006 19088 19087    1
  4007 10871 10870    1
  4008  8180  8179    1
  4009 12554 12553    1
  4010 10861 10862    1
  4011  2593  2594    1
  4012  1402  1403    1
  4013  4447  4448    1
  4014  8170  8171    1
  4015  6130  6131    1
  4016 14584 14585    1
  4017   424   425    1
  4018 12544 12545    1
  4019 12908 12907    1
  4020 20102 20101    1
  4021 14948 14947    1
  4022 19295 19294    1
  4023  9911  9910    1
  4024  6494  6493    1
  4025 18128 18127    1
  4026  8534  8533    1
  4027 16325 16324    1
  4028 16105 16106    1
  4029 16105 16107    1
  4030 14557 14558    1
  4031 14557 14559    1
  4032 19063 19064    1
  4033 19063 19065    1
  4034  8143  8144    1
  4035  8143  8145    1
  4036  9691  9692    1
  4037  9691  9693    1
  4038 17896 17897    1
  4039 17896 17898    1
  4040 12517 12518    1
  4041 12517 12519    1
  4042  6103  6104    1
  4043  6103  6105    1
  4044 19969 19970    1
  4045 19969 19971    1
  4046 19042 19044    1
  4047 19951 19953    1
  4048  9658  9660    1
  4049 16072 16074    1
  4050 17875 17877    1
  4051 12481 12483    1
  4052  8107  8109    1
  4053  6067  6069    1
  4054 14521 14523    1
  4055  6547  6548    1
  4056  3619  3620    1
  4057 12961 12962    1
  4058 16351 16352    1
  4059  1648  1649    1
  4060 15001 15002    1
  4061  2839  2840    1
  4062  8587  8588    1
  4063  9937  9938    1
  4064  8126  8125    1
  4065  3464  3463    1
  4066 12500 12499    1
  4067 16088 16087    1
  4068  6086  6085    1
  4069 14540 14539    1
  4070  9674  9673    1
  4071  2573  2572    1
  4072  1382  1381    1
  4073 17099 17098    1
  4074   569   568    1
  4075  6554  6553    1
  4076 19328 19327    1
  4077 11108 11107    1
  4078 15008 15007    1
  4079 18161 18160    1
  4080  4694  4693    1
  4081  2846  2845    1
  4082 12968 12967    1
  4083  8594  8593    1
  4084  1655  1654    1
  4085   459   457    1
  4086  2631  2629    1
  4087 10911 10909    1
  4088 14637 14635    1
  4089  4497  4495    1
  4090  1440  1438    1
  4091  8223  8221    1
  4092  6183  6181    1
  4093 12597 12595    1
  4094 16912 16913    1
  4095 16912 16914    1
  4096  8020  8021    1
  4097  8020  8022    1
  4098 18994 18995    1
  4099 18994 18996    1
  4100 10780 10781    1
  4101 10780 10782    1
  4102 14434 14435    1
  4103 14434 14436    1
  4104  5980  5981    1
  4105  5980  5982    1
  4106 12394 12395    1
  4107 12394 12396    1
  4108  4366  4367    1
  4109  4366  4368    1
  4110 17827 17828    1
  4111 17827 17829    1
  4112  8329  8331    1
  4113 17011 17013    1
  4114  6289  6291    1
  4115 10954 10956    1
  4116  4540  4542    1
  4117 14743 14745    1
  4118 12703 12705    1
  4119 18010 18012    1
  4120 19177 19179    1
  4121  4610  4609    1
  4122 11024 11023    1
  4123 12845 12844    1
  4124  9890  9889    1
  4125  3596  3595    1
  4126  8471  8470    1
  4127  2789  2788    1
  4128 14885 14884    1
  4129  6431  6430    1
  4130   533   532    1
  4131  1598  1597    1
  4132 16304 16303    1
  4133 11067 11065    1
  4134 12897 12895    1
  4135 19284 19282    1
  4136 18117 18115    1
  4137 14937 14935    1
  4138  8523  8521    1
  4139  4653  4651    1
  4140 17067 17065    1
  4141  6483  6481    1
  4142 19327 19329    1
  4143  8593  8595    1
  4144 17098 17100    1
  4145 11107 11109    1
  4146  6553  6555    1
  4147 18160 18162    1
  4148  1654  1656    1
  4149   568   570    1
  4150  4693  4695    1
  4151 15007 15009    1
  4152 12967 12969    1
  4153  2845  2847    1
  4154 12553 12555    1
  4155 17920 17922    1
  4156  4456  4458    1
  4157 16966 16968    1
  4158 19087 19089    1
  4159 14593 14595    1
  4160  8179  8181    1
  4161  6139  6141    1
  4162 10870 10872    1
  4163 16002 16000    1
  4164  7986  7984    1
  4165  4344  4342    1
  4166 18978 18976    1
  4167 14400 14398    1
  4168 12360 12358    1
  4169  5946  5944    1
  4170 10758 10756    1
  4171  9588  9586    1
  4172 16905 16903    1
  4173 19908 19906    1
  4174 17811 17809    1
  4175  3597  3595    1
  4176  6432  6430    1
  4177 11025 11023    1
  4178  4611  4609    1
  4179  1599  1597    1
  4180  2790  2788    1
  4181  8472  8470    1
  4182 14886 14884    1
  4183   534   532    1
  4184 12846 12844    1
  4185 16305 16303    1
  4186  9891  9889    1
  4187 14947 14949    1
  4188  8533  8535    1
  4189  6493  6495    1
  4190 16324 16326    1
  4191 20101 20103    1
  4192  9910  9912    1
  4193 12907 12909    1
  4194 19294 19296    1
  4195 18127 18129    1
  4196  4651  4652    1
  4197  8521  8522    1
  4198 19282 19283    1
  4199 11065 11066    1
  4200 12895 12896    1
  4201 18115 18116    1
  4202  6481  6482    1
  4203 14935 14936    1
  4204 17065 17066    1
  4205  4409  4408    1
  4206  6047  6046    1
  4207 12461 12460    1
  4208 16055 16054    1
  4209 14501 14500    1
  4210 10823 10822    1
  4211  8087  8086    1
  4212  1358  1357    1
  4213   401   400    1
  4214  3443  3442    1
  4215  9641  9640    1
  4216  2549  2548    1
  4217  8127  8125    1
  4218 14541 14539    1
  4219 16089 16087    1
  4220  1383  1381    1
  4221  3465  3463    1
  4222  9675  9673    1
  4223 12501 12499    1
  4224  6087  6085    1
  4225  2574  2572    1
  4226  4495  4496    1
  4227 19325 19324    1
  4228 11102 11101    1
  4229 14999 14998    1
  4230 12959 12958    1
  4231  6545  6544    1
  4232  1438  1439    1
  4233 12595 12596    1
  4234  8221  8222    1
  4235 17096 17095    1
  4236  2629  2630    1
  4237  8585  8584    1
  4238   457   458    1
  4239 10909 10910    1
  4240 18158 18157    1
  4241  6181  6182    1
  4242  4688  4687    1
  4243 14635 14636    1
  4244 18986 18985    1
  4245 17819 17818    1
  4246 14420 14419    1
  4247 16016 16015    1
  4248  9602  9601    1
  4249 19916 19915    1
  4250  8006  8005    1
  4251  5966  5965    1
  4252 12380 12379    1
  4253  7985  7984    1
  4254 10757 10756    1
  4255 18977 18976    1
  4256 16904 16903    1
  4257  9587  9586    1
  4258  4343  4342    1
  4259 17810 17809    1
  4260 16001 16000    1
  4261 19907 19906    1
  4262  5945  5944    1
  4263 14399 14398    1
  4264 12359 12358    1
  4265 12958 12960    1
  4266  4687  4689    1
  4267  8584  8586    1
  4268 19324 19326    1
  4269 11101 11103    1
  4270 14998 15000    1
  4271  6544  6546    1
  4272 17095 17097    1
  4273 18157 18159    1
  4274 14474 14473    1
  4275  8060  8059    1
  4276  2540  2539    1
  4277  6020  6019    1
  4278 10805 10804    1
  4279 12434 12433    1
  4280   392   391    1
  4281  4391  4390    1
  4282  1349  1348    1
  4283  5967  5965    1
  4284  8007  8005    1
  4285 17820 17818    1
  4286 12381 12379    1
  4287 16017 16015    1
  4288 18987 18985    1
  4289  9603  9601    1
  4290 19917 19915    1
  4291 14421 14419    1
  4292 10963 10964    1
  4293 10963 10965    1
  4294 17017 17018    1
  4295 17017 17019    1
  4296 19186 19187    1
  4297 19186 19188    1
  4298  9790  9791    1
  4299  9790  9792    1
  4300  6301  6302    1
  4301  6301  6303    1
  4302 20029 20030    1
  4303 20029 20031    1
  4304 18019 18020    1
  4305 18019 18021    1
  4306 12715 12716    1
  4307 12715 12717    1
  4308  8341  8342    1
  4309  8341  8343    1
  4310 16204 16205    1
  4311 16204 16206    1
  4312 14755 14756    1
  4313 14755 14757    1
  4314  4549  4550    1
  4315  4549  4551    1
  4316  8474  8473    1
  4317  6434  6433    1
  4318 19253 19252    1
  4319 20087 20086    1
  4320 16307 16306    1
  4321 18086 18085    1
  4322 12848 12847    1
  4323  9893  9892    1
  4324 14888 14887    1
  4325  2645  2644    1
  4326  1454  1453    1
  4327  6203  6202    1
  4328  3491  3490    1
  4329  8243  8242    1
  4330 16133 16132    1
  4331  9719  9718    1
  4332 12617 12616    1
  4333 14657 14656    1
  4334  9640  9642    1
  4335  8086  8088    1
  4336  1357  1359    1
  4337   400   402    1
  4338  6046  6048    1
  4339 10822 10824    1
  4340  2548  2550    1
  4341  3442  3444    1
  4342 14500 14502    1
  4343  4408  4410    1
  4344 16054 16056    1
  4345 12460 12462    1
  4346 12641 12640    1
  4347  9743  9742    1
  4348 19139 19138    1
  4349  6227  6226    1
  4350 14681 14680    1
  4351  8267  8266    1
  4352 16157 16156    1
  4353 19997 19996    1
  4354 17972 17971    1
  4355  2644  2646    1
  4356 16132 16134    1
  4357  1453  1455    1
  4358 14656 14658    1
  4359 12616 12618    1
  4360  9718  9720    1
  4361  8242  8244    1
  4362  3490  3492    1
  4363  6202  6204    1
  4364 14889 14887    1
  4365 16308 16306    1
  4366  9894  9892    1
  4367 20088 20086    1
  4368 18087 18085    1
  4369  8475  8473    1
  4370 19254 19252    1
  4371  6435  6433    1
  4372 12849 12847    1
  4373 17103 17101    1
  4374 19332 19330    1
  4375 12972 12970    1
  4376  4698  4696    1
  4377 18165 18163    1
  4378  6558  6556    1
  4379  8598  8596    1
  4380 11112 11110    1
  4381 15012 15010    1
  4382  2541  2539    1
  4383 14475 14473    1
  4384  1350  1348    1
  4385 10806 10804    1
  4386  4392  4390    1
  4387  6021  6019    1
  4388 12435 12433    1
  4389   393   391    1
  4390  8061  8059    1
  4391  4634  4633    1
  4392  6464  6463    1
  4393 14918 14917    1
  4394 11048 11047    1
  4395 19274 19273    1
  4396 12878 12877    1
  4397 18107 18106    1
  4398  8504  8503    1
  4399 17057 17056    1
  4400  2616  2614    1
  4401 14616 14614    1
  4402  1425  1423    1
  4403  6162  6160    1
  4404   447   445    1
  4405 12576 12574    1
  4406  8202  8200    1
  4407 10893 10891    1
  4408  4479  4477    1
  4409  3587  3586    1
  4410  2780  2779    1
  4411  8453  8452    1
  4412 14867 14866    1
  4413 12827 12826    1
  4414  9872  9871    1
  4415  6413  6412    1
  4416 16286 16285    1
  4417  1589  1588    1
  4418 15010 15011    1
  4419  8596  8597    1
  4420 12970 12971    1
  4421 11110 11111    1
  4422 18163 18164    1
  4423 19330 19331    1
  4424  4696  4697    1
  4425 17101 17102    1
  4426  6556  6557    1
  4427  8153  8152    1
  4428  1391  1390    1
  4429 14567 14566    1
  4430 12527 12526    1
  4431  6113  6112    1
  4432   413   412    1
  4433  2582  2581    1
  4434 10844 10843    1
  4435  4430  4429    1
  4436  9595  9596    1
  4437  9595  9597    1
  4438  7993  7994    1
  4439  7993  7995    1
  4440 14407 14408    1
  4441 14407 14409    1
  4442 19912 19913    1
  4443 19912 19914    1
  4444 17815 17816    1
  4445 17815 17817    1
  4446 18982 18983    1
  4447 18982 18984    1
  4448 12367 12368    1
  4449 12367 12369    1
  4450  5953  5954    1
  4451  5953  5955    1
  4452 16009 16010    1
  4453 16009 16011    1
  4454  9871  9873    1
  4455  8452  8454    1
  4456 14866 14868    1
  4457 16285 16287    1
  4458 12826 12828    1
  4459  6412  6414    1
  4460  2779  2781    1
  4461  3586  3588    1
  4462  1588  1590    1
  4463 12640 12642    1
  4464  9742  9744    1
  4465 14680 14682    1
  4466 19138 19140    1
  4467 19996 19998    1
  4468 16156 16158    1
  4469 17971 17973    1
  4470  6226  6228    1
  4471  8266  8268    1
  4472  4477  4478    1
  4473 14614 14615    1
  4474  8200  8201    1
  4475 10891 10892    1
  4476 12574 12575    1
  4477  6160  6161    1
  4478  2614  2615    1
  4479  1423  1424    1
  4480   445   446    1
  4481  2581  2583    1
  4482  8152  8154    1
  4483 10843 10845    1
  4484 12526 12528    1
  4485  4429  4431    1
  4486   412   414    1
  4487 14566 14568    1
  4488  1390  1392    1
  4489  6112  6114    1
  4490  1421  1420    1
  4491  8198  8197    1
  4492   443   442    1
  4493  2612  2611    1
  4494  4475  4474    1
  4495 12572 12571    1
  4496 17930 17929    1
  4497 10889 10888    1
  4498  6158  6157    1
  4499 16976 16975    1
  4500 19097 19096    1
  4501 14612 14611    1
  4502 14996 14995    1
  4503  8582  8581    1
  4504 17093 17092    1
  4505 19322 19321    1
  4506  4685  4684    1
  4507  6542  6541    1
  4508 11099 11098    1
  4509 18155 18154    1
  4510 12956 12955    1
  4511  4633  4635    1
  4512 11047 11049    1
  4513  6463  6465    1
  4514 17056 17058    1
  4515 14917 14919    1
  4516 12877 12879    1
  4517  8503  8505    1
  4518 19273 19275    1
  4519 18106 18108    1
  4520  8355  8353    1
  4521  2715  2713    1
  4522  3543  3541    1
  4523 12729 12727    1
  4524  6315  6313    1
  4525 16215 16213    1
  4526  1524  1522    1
  4527 14769 14767    1
  4528  9801  9799    1
  4529  1323  1321    1
  4530  8016  8014    1
  4531  5976  5974    1
  4532 14430 14428    1
  4533 18993 18991    1
  4534  4362  4360    1
  4535  2514  2512    1
  4536 10776 10774    1
  4537 12390 12388    1
  4538   375   373    1
  4539 17826 17824    1
  4540 16911 16909    1
  4541 16212 16210    1
  4542 12726 12724    1
  4543  6312  6310    1
  4544 18024 18022    1
  4545 14766 14764    1
  4546 19191 19189    1
  4547  9798  9796    1
  4548  8352  8350    1
  4549 20034 20032    1
  4550  3541  3542    1
  4551 16213 16214    1
  4552  2713  2714    1
  4553  9799  9800    1
  4554 14767 14768    1
  4555 12727 12728    1
  4556  6313  6314    1
  4557  1522  1523    1
  4558  8353  8354    1
  4559  8043  8041    1
  4560 16920 16918    1
  4561 10797 10795    1
  4562  4383  4381    1
  4563 19005 19003    1
  4564 14457 14455    1
  4565  6003  6001    1
  4566 17838 17836    1
  4567 12417 12415    1
  4568 14602 14604    1
  4569 14602 14603    1
  4570   436   438    1
  4571   436   437    1
  4572  4465  4467    1
  4573  4465  4466    1
  4574 10879 10881    1
  4575 10879 10880    1
  4576  1414  1416    1
  4577  1414  1415    1
  4578 12562 12564    1
  4579 12562 12563    1
  4580  2605  2607    1
  4581  2605  2606    1
  4582  8188  8190    1
  4583  8188  8189    1
  4584  6148  6150    1
  4585  6148  6149    1
  4586  3446  3445    1
  4587  6050  6049    1
  4588  1361  1360    1
  4589 12464 12463    1
  4590 16058 16057    1
  4591  9644  9643    1
  4592  8090  8089    1
  4593  2552  2551    1
  4594 14504 14503    1
  4595  4356  4354    1
  4596 14418 14416    1
  4597 10770 10768    1
  4598  5964  5962    1
  4599  1314  1312    1
  4600  2505  2503    1
  4601   369   367    1
  4602  8004  8002    1
  4603 12378 12376    1
  4604  9714  9712    1
  4605 16128 16126    1
  4606 19113 19111    1
  4607  6192  6190    1
  4608 14646 14644    1
  4609 17946 17944    1
  4610 12606 12604    1
  4611 19977 19975    1
  4612  8232  8230    1
  4613 19189 19190    1
  4614  8350  8351    1
  4615 18022 18023    1
  4616 20032 20033    1
  4617  9796  9797    1
  4618  6310  6311    1
  4619 14764 14765    1
  4620 12724 12725    1
  4621 16210 16211    1
  4622 19911 19909    1
  4623 10761 10759    1
  4624 12363 12361    1
  4625 18981 18979    1
  4626  4347  4345    1
  4627  2493  2491    1
  4628  7989  7987    1
  4629  9591  9589    1
  4630   360   358    1
  4631  3420  3418    1
  4632  5949  5947    1
  4633  1302  1300    1
  4634 16908 16906    1
  4635 14403 14401    1
  4636 17814 17812    1
  4637 16005 16003    1
  4638  2507  2506    1
  4639  9605  9604    1
  4640 18989 18988    1
  4641  8009  8008    1
  4642  1316  1315    1
  4643 19919 19918    1
  4644 17822 17821    1
  4645  5969  5968    1
  4646  3428  3427    1
  4647 12383 12382    1
  4648 16019 16018    1
  4649 14423 14422    1
  4650 12402 12400    1
  4651  1332  1330    1
  4652  8028  8026    1
  4653 10788 10786    1
  4654   384   382    1
  4655 14442 14440    1
  4656  4374  4372    1
  4657  5988  5986    1
  4658  2523  2521    1
  4659  8197  8199    1
  4660 16975 16977    1
  4661  4474  4476    1
  4662  6157  6159    1
  4663 14611 14613    1
  4664 10888 10890    1
  4665   442   444    1
  4666 17929 17931    1
  4667 12571 12573    1
  4668 19096 19098    1
  4669  1420  1422    1
  4670  2611  2613    1
  4671 19321 19323    1
  4672  4684  4686    1
  4673 11098 11100    1
  4674 17092 17094    1
  4675 18154 18156    1
  4676  6541  6543    1
  4677 12955 12957    1
  4678  8581  8583    1
  4679 14995 14997    1
  4680 12947 12946    1
  4681  2831  2830    1
  4682  1640  1639    1
  4683  8573  8572    1
  4684 14987 14986    1
  4685  3614  3613    1
  4686 16346 16345    1
  4687  9932  9931    1
  4688  6533  6532    1
  4689 12415 12416    1
  4690 19003 19004    1
  4691 14455 14456    1
  4692 16918 16919    1
  4693  8041  8042    1
  4694 10795 10796    1
  4695 17836 17837    1
  4696  4381  4382    1
  4697  6001  6002    1
  4698 19112 19111    1
  4699 12605 12604    1
  4700 16127 16126    1
  4701  6191  6190    1
  4702  8231  8230    1
  4703 19976 19975    1
  4704 14645 14644    1
  4705 17945 17944    1
  4706  9713  9712    1
  4707 10759 10760    1
  4708 16003 16004    1
  4709 19909 19910    1
  4710 12361 12362    1
  4711 16906 16907    1
  4712  3418  3419    1
  4713  9589  9590    1
  4714  4345  4346    1
  4715  2491  2492    1
  4716  7987  7988    1
  4717  1300  1301    1
  4718 14401 14402    1
  4719 17812 17813    1
  4720 18979 18980    1
  4721  5947  5948    1
  4722   358   359    1
  4723  1315  1317    1
  4724  9604  9606    1
  4725 17821 17823    1
  4726 12382 12384    1
  4727  5968  5970    1
  4728  2506  2508    1
  4729 16018 16020    1
  4730 19918 19920    1
  4731  8008  8010    1
  4732 18988 18990    1
  4733  3427  3429    1
  4734 14422 14424    1
  4735  4372  4373    1
  4736 10786 10787    1
  4737  5986  5987    1
  4738  2521  2522    1
  4739   382   383    1
  4740 14440 14441    1
  4741  1330  1331    1
  4742 12400 12401    1
  4743  8026  8027    1
  4744  8063  8062    1
  4745 16037 16036    1
  4746 19928 19927    1
  4747  9623  9622    1
  4748 12437 12436    1
  4749  6023  6022    1
  4750 17846 17845    1
  4751 14477 14476    1
  4752 19013 19012    1
  4753  1322  1321    1
  4754  4361  4360    1
  4755 18992 18991    1
  4756 16910 16909    1
  4757   374   373    1
  4758 17825 17824    1
  4759  2513  2512    1
  4760  5975  5974    1
  4761 10775 10774    1
  4762 14429 14428    1
  4763 12389 12388    1
  4764  8015  8014    1
  4765 14505 14503    1
  4766  3447  3445    1
  4767 16059 16057    1
  4768  9645  9643    1
  4769 12465 12463    1
  4770  1362  1360    1
  4771  8091  8089    1
  4772  6051  6049    1
  4773  2553  2551    1
  4774  8519  8518    1
  4775  6479  6478    1
  4776  2807  2806    1
  4777  1616  1615    1
  4778 14933 14932    1
  4779 12893 12892    1
  4780   551   550    1
  4781  4649  4648    1
  4782 11063 11062    1
  4783 14583 14581    1
  4784   423   421    1
  4785  2592  2590    1
  4786  1401  1399    1
  4787  4446  4444    1
  4788  6129  6127    1
  4789  8169  8167    1
  4790 12543 12541    1
  4791 10860 10858    1
  4792 14470 14471    1
  4793 14470 14472    1
  4794 19009 19010    1
  4795 19009 19011    1
  4796  6016  6017    1
  4797  6016  6018    1
  4798 16921 16922    1
  4799 16921 16923    1
  4800  4387  4388    1
  4801  4387  4389    1
  4802 12430 12431    1
  4803 12430 12432    1
  4804 10801 10802    1
  4805 10801 10803    1
  4806  8056  8057    1
  4807  8056  8058    1
  4808 17842 17843    1
  4809 17842 17844    1
  4810 18149 18148    1
  4811  3617  3616    1
  4812  6536  6535    1
  4813  9935  9934    1
  4814  8576  8575    1
  4815 19316 19315    1
  4816 14990 14989    1
  4817 16349 16348    1
  4818 12950 12949    1
  4819 20111 20110    1
  4820  2834  2833    1
  4821  1643  1642    1
  4822  8572  8574    1
  4823  2830  2832    1
  4824 14986 14988    1
  4825 16345 16347    1
  4826  1639  1641    1
  4827 12946 12948    1
  4828  3613  3615    1
  4829  6532  6534    1
  4830  9931  9933    1
  4831  6083  6082    1
  4832  1379  1378    1
  4833 14537 14536    1
  4834 12497 12496    1
  4835  8123  8122    1
  4836 16085 16084    1
  4837  9671  9670    1
  4838  2570  2569    1
  4839  3461  3460    1
  4840 10768 10769    1
  4841   367   368    1
  4842  5963  5962    1
  4843 12377 12376    1
  4844  4355  4354    1
  4845 14417 14416    1
  4846  2503  2504    1
  4847  1312  1313    1
  4848  8002  8003    1
  4849 11062 11064    1
  4850  1615  1617    1
  4851  2806  2808    1
  4852  8518  8520    1
  4853 12892 12894    1
  4854 14932 14934    1
  4855  6478  6480    1
  4856  4648  4650    1
  4857   550   552    1
  4858 14582 14581    1
  4859  6128  6127    1
  4860 10859 10858    1
  4861  4445  4444    1
  4862   422   421    1
  4863 12542 12541    1
  4864  2591  2590    1
  4865  1400  1399    1
  4866  8168  8167    1
  4867 16038 16036    1
  4868 14478 14476    1
  4869  9624  9622    1
  4870  6024  6022    1
  4871 12438 12436    1
  4872 17847 17845    1
  4873 19929 19927    1
  4874 19014 19012    1
  4875  8064  8062    1
  4876 12372 12370    1
  4877  7998  7996    1
  4878  1308  1306    1
  4879  3426  3424    1
  4880  5958  5956    1
  4881  2499  2497    1
  4882  9600  9598    1
  4883 14412 14410    1
  4884 16014 16012    1
  4885  7990  7991    1
  4886  7990  7992    1
  4887 12364 12365    1
  4888 12364 12366    1
  4889  9592  9593    1
  4890  9592  9594    1
  4891  1303  1304    1
  4892  1303  1305    1
  4893 14404 14405    1
  4894 14404 14406    1
  4895 10762 10763    1
  4896 10762 10764    1
  4897 16006 16007    1
  4898 16006 16008    1
  4899  4348  4349    1
  4900  4348  4350    1
  4901  2494  2495    1
  4902  2494  2496    1
  4903   361   362    1
  4904   361   363    1
  4905  5950  5951    1
  4906  5950  5952    1
  4907  3421  3422    1
  4908  3421  3423    1
  4909 19102 19104    1
  4910 19102 19103    1
  4911 10897 10899    1
  4912 10897 10898    1
  4913  6166  6168    1
  4914  6166  6167    1
  4915  8206  8208    1
  4916  8206  8207    1
  4917  4483  4485    1
  4918  4483  4484    1
  4919 14620 14622    1
  4920 14620 14621    1
  4921 16981 16983    1
  4922 16981 16982    1
  4923 17935 17937    1
  4924 17935 17936    1
  4925 12580 12582    1
  4926 12580 12581    1
  4927 12371 12370    1
  4928  7997  7996    1
  4929  1307  1306    1
  4930  3425  3424    1
  4931  2498  2497    1
  4932 14411 14410    1
  4933 16013 16012    1
  4934  5957  5956    1
  4935  9599  9598    1
  4936 16340 16339    1
  4937 18146 18145    1
  4938 19313 19312    1
  4939 14981 14980    1
  4940  6527  6526    1
  4941  9926  9925    1
  4942  8567  8566    1
  4943 12941 12940    1
  4944 20108 20107    1
  4945 12397 12399    1
  4946 12397 12398    1
  4947 10783 10785    1
  4948 10783 10784    1
  4949  2518  2520    1
  4950  2518  2519    1
  4951  8023  8025    1
  4952  8023  8024    1
  4953   379   381    1
  4954   379   380    1
  4955  4369  4371    1
  4956  4369  4370    1
  4957 14437 14439    1
  4958 14437 14438    1
  4959  5983  5985    1
  4960  5983  5984    1
  4961  1327  1329    1
  4962  1327  1328    1
  4963  6053  6052    1
  4964 10826 10825    1
  4965  1364  1363    1
  4966 12467 12466    1
  4967  8093  8092    1
  4968  2555  2554    1
  4969   404   403    1
  4970 14507 14506    1
  4971  4412  4411    1
  4972 17928 17926    1
  4973 14610 14608    1
  4974 19095 19093    1
  4975 16974 16972    1
  4976  4473  4471    1
  4977 10887 10885    1
  4978  6156  6154    1
  4979  8196  8194    1
  4980 12570 12568    1
  4981 20109 20107    1
  4982 12942 12940    1
  4983 14982 14980    1
  4984 16341 16339    1
  4985  9927  9925    1
  4986  6528  6526    1
  4987  8568  8566    1
  4988 19314 19312    1
  4989 18147 18145    1
  4990  1642  1644    1
  4991 14989 14991    1
  4992  2833  2835    1
  4993  6535  6537    1
  4994  9934  9936    1
  4995 12949 12951    1
  4996 18148 18150    1
  4997 20110 20112    1
  4998 16348 16350    1
  4999  8575  8577    1
  5000 19315 19317    1
  5001  3616  3618    1
  5002  8460  8458    1
  5003  2787  2785    1
  5004  1596  1594    1
  5005  3594  3592    1
  5006  9879  9877    1
  5007 14874 14872    1
  5008 12834 12832    1
  5009 16293 16291    1
  5010  6420  6418    1
  5011 16043 16042    1
  5012 19934 19933    1
  5013 14483 14482    1
  5014 19019 19018    1
  5015  8069  8068    1
  5016  9629  9628    1
  5017 12443 12442    1
  5018  6029  6028    1
  5019 17852 17851    1
  5020 19926 19924    1
  5021  8055  8053    1
  5022 17841 17839    1
  5023  9621  9619    1
  5024 14469 14467    1
  5025 12429 12427    1
  5026  6015  6013    1
  5027 16035 16033    1
  5028 19008 19006    1
  5029 14536 14538    1
  5030  8122  8124    1
  5031  9670  9672    1
  5032  6082  6084    1
  5033  1378  1380    1
  5034 16084 16086    1
  5035 12496 12498    1
  5036  2569  2571    1
  5037  3460  3462    1
  5038  6154  6155    1
  5039 12568 12569    1
  5040 14608 14609    1
  5041  8194  8195    1
  5042 17926 17927    1
  5043 16972 16973    1
  5044 19093 19094    1
  5045  4471  4472    1
  5046 10885 10886    1
  5047  9877  9878    1
  5048  3592  3593    1
  5049  6418  6419    1
  5050 16291 16292    1
  5051 12832 12833    1
  5052 14872 14873    1
  5053  8458  8459    1
  5054  1594  1595    1
  5055  2785  2786    1
  5056 19152 19150    1
  5057  9759  9757    1
  5058 14700 14698    1
  5059  8286  8284    1
  5060 16173 16171    1
  5061  6246  6244    1
  5062 17985 17983    1
  5063 20010 20008    1
  5064 12660 12658    1
  5065  1435  1437    1
  5066  1435  1436    1
  5067 16987 16989    1
  5068 16987 16988    1
  5069 12592 12594    1
  5070 12592 12593    1
  5071 19972 19974    1
  5072 19972 19973    1
  5073 10906 10908    1
  5074 10906 10907    1
  5075  2626  2628    1
  5076  2626  2627    1
  5077 17941 17943    1
  5078 17941 17942    1
  5079  3478  3480    1
  5080  3478  3479    1
  5081  9703  9705    1
  5082  9703  9704    1
  5083  6178  6180    1
  5084  6178  6179    1
  5085  4492  4494    1
  5086  4492  4493    1
  5087 14632 14634    1
  5088 14632 14633    1
  5089 19108 19110    1
  5090 19108 19109    1
  5091 16117 16119    1
  5092 16117 16118    1
  5093   454   456    1
  5094   454   455    1
  5095  8218  8220    1
  5096  8218  8219    1
  5097 16026 16024    1
  5098  3432  3430    1
  5099 12414 12412    1
  5100  1338  1336    1
  5101 14454 14452    1
  5102  9612  9610    1
  5103  6000  5998    1
  5104  8040  8038    1
  5105  2529  2527    1
  5106  4683  4681    1
  5107 11097 11095    1
  5108  8580  8578    1
  5109   564   562    1
  5110  1647  1645    1
  5111 19320 19318    1
  5112 17091 17089    1
  5113  6540  6538    1
  5114 14994 14992    1
  5115  2838  2836    1
  5116 12954 12952    1
  5117 18153 18151    1
  5118 12658 12659    1
  5119  9757  9758    1
  5120  6244  6245    1
  5121 19150 19151    1
  5122 16171 16172    1
  5123 14698 14699    1
  5124  8284  8285    1
  5125 17983 17984    1
  5126 20008 20009    1
  5127  4681  4682    1
  5128 19318 19319    1
  5129 14992 14993    1
  5130  6538  6539    1
  5131  2836  2837    1
  5132 12952 12953    1
  5133 18151 18152    1
  5134   562   563    1
  5135  8578  8579    1
  5136 17089 17090    1
  5137  1645  1646    1
  5138 11095 11096    1
  5139 16931 16930    1
  5140 19028 19027    1
  5141  8078  8077    1
  5142 12452 12451    1
  5143 16049 16048    1
  5144 10814 10813    1
  5145  6038  6037    1
  5146 17861 17860    1
  5147 19940 19939    1
  5148  4400  4399    1
  5149 14492 14491    1
  5150  9635  9634    1
  5151 19941 19939    1
  5152  9636  9634    1
  5153 14493 14491    1
  5154 16932 16930    1
  5155 17862 17860    1
  5156 16050 16048    1
  5157 10815 10813    1
  5158  4401  4399    1
  5159 19029 19027    1
  5160  6039  6037    1
  5161 12453 12451    1
  5162  8079  8077    1
  5163 12466 12468    1
  5164  1363  1365    1
  5165  6052  6054    1
  5166   403   405    1
  5167  2554  2556    1
  5168 14506 14508    1
  5169  4411  4413    1
  5170  8092  8094    1
  5171 10825 10827    1
  5172   389   388    1
  5173  2531  2530    1
  5174 10799 10798    1
  5175 12419 12418    1
  5176  6005  6004    1
  5177 14459 14458    1
  5178  8045  8044    1
  5179  4385  4384    1
  5180  1340  1339    1
  5181 17840 17839    1
  5182 16034 16033    1
  5183 12428 12427    1
  5184 19925 19924    1
  5185  8054  8053    1
  5186  9620  9619    1
  5187  6014  6013    1
  5188 14468 14467    1
  5189 19007 19006    1
  5190 16042 16044    1
  5191  6028  6030    1
  5192 14482 14484    1
  5193  8068  8070    1
  5194  9628  9630    1
  5195 17851 17853    1
  5196 12442 12444    1
  5197 19018 19020    1
  5198 19933 19935    1
  5199  4384  4386    1
  5200  1339  1341    1
  5201   388   390    1
  5202 14458 14460    1
  5203  8044  8046    1
  5204  6004  6006    1
  5205  2530  2532    1
  5206 12418 12420    1
  5207 10798 10800    1
  5208  3605  3604    1
  5209  2816  2815    1
  5210 16331 16330    1
  5211  6503  6502    1
  5212 12917 12916    1
  5213 14957 14956    1
  5214  1625  1624    1
  5215  8543  8542    1
  5216  9917  9916    1
  5217 12864 12862    1
  5218  9906  9904    1
  5219  3600  3598    1
  5220  6450  6448    1
  5221 14904 14902    1
  5222  2793  2791    1
  5223  4620  4618    1
  5224 11034 11032    1
  5225  1602  1600    1
  5226  8490  8488    1
  5227 16320 16318    1
  5228   537   535    1
  5229 12385 12386    1
  5230 12385 12387    1
  5231  4357  4358    1
  5232  4357  4359    1
  5233 14425 14426    1
  5234 14425 14427    1
  5235  1318  1319    1
  5236  1318  1320    1
  5237  8011  8012    1
  5238  8011  8013    1
  5239   370   371    1
  5240   370   372    1
  5241  5971  5972    1
  5242  5971  5973    1
  5243  2509  2510    1
  5244  2509  2511    1
  5245 10771 10772    1
  5246 10771 10773    1
  5247 14922 14920    1
  5248 19278 19276    1
  5249 12882 12880    1
  5250 17061 17059    1
  5251  6468  6466    1
  5252 18111 18109    1
  5253  8508  8506    1
  5254 11052 11050    1
  5255  4638  4636    1
  5256 16318 16319    1
  5257  1600  1601    1
  5258  6448  6449    1
  5259 14902 14903    1
  5260  8488  8489    1
  5261   535   536    1
  5262 12862 12863    1
  5263  9904  9905    1
  5264  4618  4619    1
  5265 11032 11033    1
  5266  3598  3599    1
  5267  2791  2792    1
  5268  9610  9611    1
  5269  8038  8039    1
  5270 14452 14453    1
  5271  3430  3431    1
  5272  2527  2528    1
  5273  5998  5999    1
  5274 16024 16025    1
  5275 12412 12413    1
  5276  1336  1337    1
  5277 20007 20005    1
  5278  2670  2668    1
  5279  9756  9754    1
  5280 17982 17980    1
  5281 19149 19147    1
  5282  1479  1477    1
  5283  6240  6238    1
  5284  8280  8278    1
  5285 16170 16168    1
  5286 12654 12652    1
  5287  3516  3514    1
  5288 14694 14692    1
  5289  6466  6467    1
  5290 17059 17060    1
  5291  8506  8507    1
  5292  4636  4637    1
  5293 11050 11051    1
  5294 19276 19277    1
  5295 18109 18110    1
  5296 14920 14921    1
  5297 12880 12881    1
  5298  6371  6370    1
  5299  2750  2749    1
  5300 18053 18052    1
  5301  8411  8410    1
  5302   518   517    1
  5303  4583  4582    1
  5304 14825 14824    1
  5305 17030 17029    1
  5306 10997 10996    1
  5307 12785 12784    1
  5308  1559  1558    1
  5309 19220 19219    1
  5310 19307 19306    1
  5311 11090 11089    1
  5312 14975 14974    1
  5313 17084 17083    1
  5314  6521  6520    1
  5315  4676  4675    1
  5316 18140 18139    1
  5317 12935 12934    1
  5318  8561  8560    1
  5319 16344 16342    1
  5320  8571  8569    1
  5321  2829  2827    1
  5322 14985 14983    1
  5323  1638  1636    1
  5324  6531  6529    1
  5325  3612  3610    1
  5326  9930  9928    1
  5327 12945 12943    1
  5328 11089 11091    1
  5329 14974 14976    1
  5330 19306 19308    1
  5331  8560  8562    1
  5332 17083 17085    1
  5333  4675  4677    1
  5334 18139 18141    1
  5335  6520  6522    1
  5336 12934 12936    1
  5337 20005 20006    1
  5338 17980 17981    1
  5339 12652 12653    1
  5340  6238  6239    1
  5341 16168 16169    1
  5342  1477  1478    1
  5343  2668  2669    1
  5344  8278  8279    1
  5345 14692 14693    1
  5346  3514  3515    1
  5347  9754  9755    1
  5348 19147 19148    1
  5349  6045  6043    1
  5350 10821 10819    1
  5351 14499 14497    1
  5352  8085  8083    1
  5353 16938 16936    1
  5354 17868 17866    1
  5355 19035 19033    1
  5356 12459 12457    1
  5357  4407  4405    1
  5358 19287 19285    1
  5359 12900 12898    1
  5360 14940 14938    1
  5361  4656  4654    1
  5362 18120 18118    1
  5363  8526  8524    1
  5364  6486  6484    1
  5365 17070 17068    1
  5366 11070 11068    1
  5367  3470  3469    1
  5368 14564 14563    1
  5369  8150  8149    1
  5370  6110  6109    1
  5371  9695  9694    1
  5372  1388  1387    1
  5373 12524 12523    1
  5374 16109 16108    1
  5375  2579  2578    1
  5376  2815  2817    1
  5377  3604  3606    1
  5378 12916 12918    1
  5379  1624  1626    1
  5380  6502  6504    1
  5381  9916  9918    1
  5382  8542  8544    1
  5383 16330 16332    1
  5384 14956 14958    1
  5385  4376  4375    1
  5386  8030  8029    1
  5387  5990  5989    1
  5388 14444 14443    1
  5389 16916 16915    1
  5390 12404 12403    1
  5391 18998 18997    1
  5392 17831 17830    1
  5393 10790 10789    1
  5394  8552  8551    1
  5395  6512  6511    1
  5396 12926 12925    1
  5397  9920  9919    1
  5398 14966 14965    1
  5399 16334 16333    1
  5400 20105 20104    1
  5401 19304 19303    1
  5402 18137 18136    1
  5403 12457 12458    1
  5404 17866 17867    1
  5405 16936 16937    1
  5406 10819 10820    1
  5407 14497 14498    1
  5408  6043  6044    1
  5409 19033 19034    1
  5410  8083  8084    1
  5411  4405  4406    1
  5412 14892 14890    1
  5413 18090 18088    1
  5414 19257 19255    1
  5415 20091 20089    1
  5416 12852 12850    1
  5417  9897  9895    1
  5418  8478  8476    1
  5419 16311 16309    1
  5420  6438  6436    1
  5421  2809  2811    1
  5422  2809  2810    1
  5423  1618  1620    1
  5424  1618  1619    1
  5425  8536  8538    1
  5426  8536  8537    1
  5427 12910 12912    1
  5428 12910 12911    1
  5429 11077 11079    1
  5430 11077 11078    1
  5431  6496  6498    1
  5432  6496  6497    1
  5433 14950 14952    1
  5434 14950 14951    1
  5435   553   555    1
  5436   553   554    1
  5437  4663  4665    1
  5438  4663  4664    1
  5439 11003 11002    1
  5440 16271 16270    1
  5441 19229 19228    1
  5442 18062 18061    1
  5443 12794 12793    1
  5444  4589  4588    1
  5445 17036 17035    1
  5446  8420  8419    1
  5447 20069 20068    1
  5448  9857  9856    1
  5449 14834 14833    1
  5450  6380  6379    1
  5451  2525  2524    1
  5452  1334  1333    1
  5453 12407 12406    1
  5454 14447 14446    1
  5455  4379  4378    1
  5456   386   385    1
  5457  8033  8032    1
  5458  5993  5992    1
  5459 10793 10792    1
  5460 10996 10998    1
  5461 12784 12786    1
  5462  1558  1560    1
  5463  8410  8412    1
  5464   517   519    1
  5465 18052 18054    1
  5466 14824 14826    1
  5467 17029 17031    1
  5468  2749  2751    1
  5469  6370  6372    1
  5470 19219 19221    1
  5471  4582  4584    1
  5472 17998 17999    1
  5473 17998 18000    1
  5474  8314  8315    1
  5475  8314  8316    1
  5476 19165 19166    1
  5477 19165 19167    1
  5478  4528  4529    1
  5479  4528  4530    1
  5480 12688 12689    1
  5481 12688 12690    1
  5482 17002 17003    1
  5483 17002 17004    1
  5484 10942 10943    1
  5485 10942 10944    1
  5486  6274  6275    1
  5487  6274  6276    1
  5488 14728 14729    1
  5489 14728 14730    1
  5490  8570  8569    1
  5491 12944 12943    1
  5492  1637  1636    1
  5493  3611  3610    1
  5494 16343 16342    1
  5495 14984 14983    1
  5496  2828  2827    1
  5497  9929  9928    1
  5498  6530  6529    1
  5499 18997 18999    1
  5500 17830 17832    1
  5501 14443 14445    1
  5502  5989  5991    1
  5503  8029  8031    1
  5504 16915 16917    1
  5505  4375  4377    1
  5506 10789 10791    1
  5507 12403 12405    1
  5508 12700 12702    1
  5509 12700 12701    1
  5510  4537  4539    1
  5511  4537  4538    1
  5512 17008 17010    1
  5513 17008 17009    1
  5514  6286  6288    1
  5515  6286  6287    1
  5516  8326  8328    1
  5517  8326  8327    1
  5518 10951 10953    1
  5519 10951 10952    1
  5520   487   489    1
  5521   487   488    1
  5522 19174 19176    1
  5523 19174 19175    1
  5524 18007 18009    1
  5525 18007 18008    1
  5526  2698  2700    1
  5527  2698  2699    1
  5528 14740 14742    1
  5529 14740 14741    1
  5530  1507  1509    1
  5531  1507  1508    1
  5532 16061 16060    1
  5533  8096  8095    1
  5534 14510 14509    1
  5535 19946 19945    1
  5536  6056  6055    1
  5537 19037 19036    1
  5538 12470 12469    1
  5539  9647  9646    1
  5540 17870 17869    1
  5541 12789 12787    1
  5542  2754  2752    1
  5543 16266 16264    1
  5544  6375  6373    1
  5545  1563  1561    1
  5546  3573  3571    1
  5547  8415  8413    1
  5548 14829 14827    1
  5549 18057 18055    1
  5550 19224 19222    1
  5551 20064 20062    1
  5552  9852  9850    1
  5553 19255 19256    1
  5554 16309 16310    1
  5555 14890 14891    1
  5556 12850 12851    1
  5557  8476  8477    1
  5558 18088 18089    1
  5559  9895  9896    1
  5560  6436  6437    1
  5561 20089 20090    1
  5562 18143 18142    1
  5563 19310 19309    1
  5564 14978 14977    1
  5565  4679  4678    1
  5566  6524  6523    1
  5567 11093 11092    1
  5568 17087 17086    1
  5569  8564  8563    1
  5570 12938 12937    1
  5571  6374  6373    1
  5572  3572  3571    1
  5573  8414  8413    1
  5574 19223 19222    1
  5575  9851  9850    1
  5576  1562  1561    1
  5577 12788 12787    1
  5578 16265 16264    1
  5579 18056 18055    1
  5580 20063 20062    1
  5581 14828 14827    1
  5582  2753  2752    1
  5583  9706  9708    1
  5584  9706  9707    1
  5585 10912 10914    1
  5586 10912 10913    1
  5587  2632  2634    1
  5588  2632  2633    1
  5589  3481  3483    1
  5590  3481  3482    1
  5591 12598 12600    1
  5592 12598 12599    1
  5593  1441  1443    1
  5594  1441  1442    1
  5595 14638 14640    1
  5596 14638 14639    1
  5597  6184  6186    1
  5598  6184  6185    1
  5599 16120 16122    1
  5600 16120 16121    1
  5601   460   462    1
  5602   460   461    1
  5603  4498  4500    1
  5604  4498  4499    1
  5605  8224  8226    1
  5606  8224  8225    1
  5607  6055  6057    1
  5608  8095  8097    1
  5609 16060 16062    1
  5610 12469 12471    1
  5611  9646  9648    1
  5612 19036 19038    1
  5613 19945 19947    1
  5614 14509 14511    1
  5615 17869 17871    1
  5616 14563 14565    1
  5617  2578  2580    1
  5618 16108 16110    1
  5619  1387  1389    1
  5620 12523 12525    1
  5621  8149  8151    1
  5622  3469  3471    1
  5623  6109  6111    1
  5624  9694  9696    1
  5625 18136 18138    1
  5626  8551  8553    1
  5627 12925 12927    1
  5628 19303 19305    1
  5629  9919  9921    1
  5630 16333 16335    1
  5631 20104 20106    1
  5632  6511  6513    1
  5633 14965 14967    1
  5634 12422 12421    1
  5635  1343  1342    1
  5636  8048  8047    1
  5637 14462 14461    1
  5638  6008  6007    1
  5639  2534  2533    1
  5640  9614  9613    1
  5641  3434  3433    1
  5642 16028 16027    1
  5643 18118 18119    1
  5644  4654  4655    1
  5645 17068 17069    1
  5646 14938 14939    1
  5647  6484  6485    1
  5648 19285 19286    1
  5649  8524  8525    1
  5650 11068 11069    1
  5651 12898 12899    1
  5652 11002 11004    1
  5653  9856  9858    1
  5654 14833 14835    1
  5655 17035 17037    1
  5656 12793 12795    1
  5657 18061 18063    1
  5658 16270 16272    1
  5659  8419  8421    1
  5660 20068 20070    1
  5661  4588  4590    1
  5662  6379  6381    1
  5663 19228 19230    1
  5664  8565  8563    1
  5665 17088 17086    1
  5666 19311 19309    1
  5667 14979 14977    1
  5668  4680  4678    1
  5669 18144 18142    1
  5670  6525  6523    1
  5671 11094 11092    1
  5672 12939 12937    1
  5673  2535  2533    1
  5674 14463 14461    1
  5675 12423 12421    1
  5676  3435  3433    1
  5677  8049  8047    1
  5678 16029 16027    1
  5679  6009  6007    1
  5680  9615  9613    1
  5681  1344  1342    1
  5682  9924  9922    1
  5683  1635  1633    1
  5684 16338 16336    1
  5685  3609  3607    1
  5686  6519  6517    1
  5687  8559  8557    1
  5688 12933 12931    1
  5689  2826  2824    1
  5690 14973 14971    1
  5691   387   385    1
  5692  2526  2524    1
  5693  1335  1333    1
  5694  5994  5992    1
  5695  4380  4378    1
  5696 14448 14446    1
  5697 12408 12406    1
  5698 10794 10792    1
  5699  8034  8032    1
  5700 12714 12712    1
  5701 18018 18016    1
  5702 17016 17014    1
  5703  6300  6298    1
  5704  8340  8338    1
  5705  4548  4546    1
  5706 14754 14752    1
  5707 10962 10960    1
  5708 19185 19183    1
  5709  2586  2584    1
  5710 19071 19069    1
  5711 14571 14569    1
  5712  6117  6115    1
  5713 10848 10846    1
  5714 16950 16948    1
  5715  1395  1393    1
  5716 17904 17902    1
  5717  4434  4432    1
  5718   417   415    1
  5719  8157  8155    1
  5720 12531 12529    1
  5721  9861  9859    1
  5722  6387  6385    1
  5723 12801 12799    1
  5724 14841 14839    1
  5725  3576  3574    1
  5726  8427  8425    1
  5727  1569  1567    1
  5728 16275 16273    1
  5729  2760  2758    1
  5730 19134 19132    1
  5731 14676 14674    1
  5732 19992 19990    1
  5733 16152 16150    1
  5734 17967 17965    1
  5735  9738  9736    1
  5736  8262  8260    1
  5737 12636 12634    1
  5738  6222  6220    1
  5739 16322 16321    1
  5740 19268 19267    1
  5741 18101 18100    1
  5742  4622  4621    1
  5743  8492  8491    1
  5744  6452  6451    1
  5745  9908  9907    1
  5746 11036 11035    1
  5747 20099 20098    1
  5748 17051 17050    1
  5749 14906 14905    1
  5750 12866 12865    1
  5751 14752 14753    1
  5752 10960 10961    1
  5753 12712 12713    1
  5754 19183 19184    1
  5755  6298  6299    1
  5756 17014 17015    1
  5757  8338  8339    1
  5758 18016 18017    1
  5759  4546  4547    1
  5760 16948 16949    1
  5761  2584  2585    1
  5762  4432  4433    1
  5763 19069 19070    1
  5764   415   416    1
  5765  6115  6116    1
  5766 12529 12530    1
  5767  1393  1394    1
  5768  8155  8156    1
  5769 17902 17903    1
  5770 10846 10847    1
  5771 14569 14570    1
  5772  1633  1634    1
  5773  9922  9923    1
  5774  6517  6518    1
  5775  2824  2825    1
  5776  3607  3608    1
  5777 14971 14972    1
  5778 12931 12932    1
  5779 16336 16337    1
  5780  8557  8558    1
  5781 17887 17889    1
  5782 17887 17888    1
  5783  9679  9681    1
  5784  9679  9680    1
  5785  6091  6093    1
  5786  6091  6092    1
  5787  8131  8133    1
  5788  8131  8132    1
  5789 12505 12507    1
  5790 12505 12506    1
  5791 16093 16095    1
  5792 16093 16094    1
  5793 19960 19962    1
  5794 19960 19961    1
  5795 14545 14547    1
  5796 14545 14546    1
  5797 19054 19056    1
  5798 19054 19055    1
  5799 19074 19072    1
  5800 17907 17905    1
  5801 12534 12532    1
  5802 14574 14572    1
  5803 10851 10849    1
  5804 16953 16951    1
  5805  6120  6118    1
  5806  4437  4435    1
  5807  8160  8158    1
  5808 12800 12799    1
  5809 14840 14839    1
  5810  9860  9859    1
  5811  1568  1567    1
  5812 16274 16273    1
  5813  2759  2758    1
  5814  3575  3574    1
  5815  6386  6385    1
  5816  8426  8425    1
  5817 12664 12666    1
  5818 12664 12665    1
  5819 14704 14706    1
  5820 14704 14705    1
  5821  6250  6252    1
  5822  6250  6251    1
  5823  9763  9765    1
  5824  9763  9764    1
  5825 16177 16179    1
  5826 16177 16178    1
  5827  8290  8292    1
  5828  8290  8291    1
  5829 19156 19158    1
  5830 19156 19157    1
  5831 20014 20016    1
  5832 20014 20015    1
  5833 17989 17991    1
  5834 17989 17990    1
  5835 12836 12835    1
  5836  8462  8461    1
  5837 14876 14875    1
  5838 16295 16294    1
  5839  9881  9880    1
  5840 20078 20077    1
  5841 18077 18076    1
  5842  6422  6421    1
  5843 19244 19243    1
  5844  8418  8416    1
  5845 19227 19225    1
  5846 20067 20065    1
  5847  4587  4585    1
  5848  6378  6376    1
  5849 16269 16267    1
  5850 14832 14830    1
  5851 11001 10999    1
  5852 17034 17032    1
  5853 18060 18058    1
  5854 12792 12790    1
  5855  9855  9853    1
  5856  4507  4509    1
  5857  4507  4508    1
  5858 14662 14664    1
  5859 14662 14663    1
  5860 10921 10923    1
  5861 10921 10922    1
  5862  9724  9726    1
  5863  9724  9725    1
  5864  6208  6210    1
  5865  6208  6209    1
  5866  3496  3498    1
  5867  3496  3497    1
  5868  8248  8250    1
  5869  8248  8249    1
  5870  1459  1461    1
  5871  1459  1460    1
  5872  2650  2652    1
  5873  2650  2651    1
  5874 16138 16140    1
  5875 16138 16139    1
  5876 12622 12624    1
  5877 12622 12623    1
  5878   466   468    1
  5879   466   467    1
  5880  8261  8260    1
  5881 17966 17965    1
  5882 12635 12634    1
  5883 19133 19132    1
  5884 19991 19990    1
  5885 16151 16150    1
  5886  9737  9736    1
  5887  6221  6220    1
  5888 14675 14674    1
  5889 16091 16090    1
  5890  8129  8128    1
  5891 12503 12502    1
  5892 14543 14542    1
  5893 19958 19957    1
  5894  6089  6088    1
  5895 19052 19051    1
  5896 17885 17884    1
  5897  9677  9676    1
  5898 12480 12478    1
  5899  3453  3451    1
  5900  9657  9655    1
  5901  6066  6064    1
  5902  8106  8104    1
  5903 16071 16069    1
  5904  4419  4417    1
  5905   408   406    1
  5906  1371  1369    1
  5907 14520 14518    1
  5908  2562  2560    1
  5909 10833 10831    1
  5910  4623  4621    1
  5911 19269 19267    1
  5912 16323 16321    1
  5913  8493  8491    1
  5914  9909  9907    1
  5915 17052 17050    1
  5916 14907 14905    1
  5917 20100 20098    1
  5918  6453  6451    1
  5919 12867 12865    1
  5920 18102 18100    1
  5921 11037 11035    1
  5922  2769  2767    1
  5923  9864  9862    1
  5924  8442  8440    1
  5925  3579  3577    1
  5926  1578  1576    1
  5927 16278 16276    1
  5928 14856 14854    1
  5929  6402  6400    1
  5930 12816 12814    1
  5931 19239 19237    1
  5932 20073 20071    1
  5933 18072 18070    1
  5934  1576  1577    1
  5935 19237 19238    1
  5936 18070 18071    1
  5937 20071 20072    1
  5938  3577  3578    1
  5939 16276 16277    1
  5940  9862  9863    1
  5941  8440  8441    1
  5942 12814 12815    1
  5943 14854 14855    1
  5944  6400  6401    1
  5945  2767  2768    1
  5946 10999 11000    1
  5947 17032 17033    1
  5948 20065 20066    1
  5949 19225 19226    1
  5950 14830 14831    1
  5951 18058 18059    1
  5952  8416  8417    1
  5953 16267 16268    1
  5954 12790 12791    1
  5955  9853  9854    1
  5956  4585  4586    1
  5957  6376  6377    1
  5958  6064  6065    1
  5959  3451  3452    1
  5960 14518 14519    1
  5961  1369  1370    1
  5962  9655  9656    1
  5963  8104  8105    1
  5964 16069 16070    1
  5965  4417  4418    1
  5966  2560  2561    1
  5967   406   407    1
  5968 10831 10832    1
  5969 12478 12479    1
  5970  6142  6144    1
  5971  6142  6143    1
  5972 10873 10875    1
  5973 10873 10874    1
  5974 14596 14598    1
  5975 14596 14597    1
  5976  8182  8184    1
  5977  8182  8183    1
  5978  4459  4461    1
  5979  4459  4460    1
  5980  1408  1410    1
  5981  1408  1409    1
  5982   430   432    1
  5983   430   431    1
  5984 12556 12558    1
  5985 12556 12557    1
  5986  2599  2601    1
  5987  2599  2600    1
  5988 10994 10993    1
  5989 12782 12781    1
  5990  6368  6367    1
  5991  4580  4579    1
  5992 14822 14821    1
  5993  1556  1555    1
  5994  8408  8407    1
  5995  2747  2746    1
  5996   515   514    1
  5997  1550  1549    1
  5998  4568  4567    1
  5999 14810 14809    1
  6000 10982 10981    1
  6001  6356  6355    1
  6002  2741  2740    1
  6003 12770 12769    1
  6004   509   508    1
  6005  8396  8395    1
  6006  8255  8254    1
  6007 17960 17959    1
  6008  2657  2656    1
  6009 12629 12628    1
  6010  3503  3502    1
  6011  6215  6214    1
  6012  9731  9730    1
  6013 16145 16144    1
  6014 14669 14668    1
  6015 19985 19984    1
  6016  1466  1465    1
  6017 19127 19126    1
  6018  4435  4436    1
  6019 12532 12533    1
  6020  8158  8159    1
  6021 10849 10850    1
  6022 17905 17906    1
  6023 14572 14573    1
  6024  6118  6119    1
  6025 16951 16952    1
  6026 19072 19073    1
  6027 10939 10941    1
  6028 10939 10940    1
  6029  2677  2679    1
  6030  2677  2678    1
  6031  1486  1488    1
  6032  1486  1487    1
  6033 14710 14712    1
  6034 14710 14711    1
  6035  4525  4527    1
  6036  4525  4526    1
  6037   481   483    1
  6038   481   482    1
  6039  6256  6258    1
  6040  6256  6257    1
  6041  8296  8298    1
  6042  8296  8297    1
  6043 12670 12672    1
  6044 12670 12671    1
  6045  9880  9882    1
  6046 16294 16296    1
  6047 19243 19245    1
  6048 20077 20079    1
  6049  6421  6423    1
  6050  8461  8463    1
  6051 12835 12837    1
  6052 18076 18078    1
  6053 14875 14877    1
  6054  4491  4489    1
  6055 10905 10903    1
  6056  6174  6172    1
  6057  8214  8212    1
  6058 12588 12586    1
  6059 19107 19105    1
  6060 16986 16984    1
  6061 14628 14626    1
  6062 17940 17938    1
  6063  6357  6355    1
  6064  4569  4567    1
  6065 12771 12769    1
  6066  8397  8395    1
  6067  1551  1549    1
  6068 10983 10981    1
  6069  2742  2740    1
  6070   510   508    1
  6071 14811 14809    1
  6072 11084 11083    1
  6073  6509  6508    1
  6074  4670  4669    1
  6075 12923 12922    1
  6076  8549  8548    1
  6077 17081 17080    1
  6078 19301 19300    1
  6079 18134 18133    1
  6080 14963 14962    1
  6081 14969 14968    1
  6082 12929 12928    1
  6083  6515  6514    1
  6084  1631  1630    1
  6085  2822  2821    1
  6086  8555  8554    1
  6087  4673  4672    1
  6088   560   559    1
  6089 11087 11086    1
  6090  9716  9715    1
  6091  2642  2641    1
  6092 19118 19117    1
  6093 19979 19978    1
  6094  6197  6196    1
  6095  8237  8236    1
  6096  3488  3487    1
  6097 16130 16129    1
  6098 14651 14650    1
  6099 17951 17950    1
  6100 12611 12610    1
  6101  1451  1450    1
  6102 12628 12630    1
  6103 19126 19128    1
  6104 17959 17961    1
  6105  6214  6216    1
  6106  2656  2658    1
  6107 19984 19986    1
  6108  3502  3504    1
  6109 16144 16146    1
  6110  9730  9732    1
  6111 14668 14670    1
  6112  8254  8256    1
  6113  1465  1467    1
  6114 12474 12472    1
  6115  9651  9649    1
  6116  6060  6058    1
  6117  1368  1366    1
  6118  8100  8098    1
  6119  2559  2557    1
  6120  3450  3448    1
  6121 14514 14512    1
  6122 16065 16063    1
  6123 14718 14716    1
  6124  2682  2680    1
  6125  1491  1489    1
  6126 12678 12676    1
  6127  8304  8302    1
  6128  9774  9772    1
  6129 16188 16186    1
  6130  3522  3520    1
  6131  6264  6262    1
  6132 19213 19215    1
  6133 19213 19214    1
  6134  9844  9846    1
  6135  9844  9845    1
  6136 20056 20058    1
  6137 20056 20057    1
  6138  6361  6363    1
  6139  6361  6362    1
  6140 18046 18048    1
  6141 18046 18047    1
  6142  4573  4575    1
  6143  4573  4574    1
  6144 17023 17025    1
  6145 17023 17024    1
  6146  8401  8403    1
  6147  8401  8402    1
  6148 10987 10989    1
  6149 10987 10988    1
  6150 14815 14817    1
  6151 14815 14816    1
  6152 16258 16260    1
  6153 16258 16259    1
  6154 12775 12777    1
  6155 12775 12776    1
  6156  3475  3477    1
  6157  3475  3476    1
  6158 12589 12591    1
  6159 12589 12590    1
  6160  2623  2625    1
  6161  2623  2624    1
  6162  1432  1434    1
  6163  1432  1433    1
  6164  9700  9702    1
  6165  9700  9701    1
  6166  8215  8217    1
  6167  8215  8216    1
  6168  6175  6177    1
  6169  6175  6176    1
  6170 16114 16116    1
  6171 16114 16115    1
  6172 14629 14631    1
  6173 14629 14630    1
  6174  8382  8380    1
  6175  9828  9826    1
  6176  3561  3559    1
  6177  1542  1540    1
  6178 14796 14794    1
  6179  6342  6340    1
  6180  2733  2731    1
  6181 16242 16240    1
  6182 12756 12754    1
  6183  8128  8130    1
  6184 14542 14544    1
  6185 19051 19053    1
  6186 17884 17886    1
  6187 16090 16092    1
  6188  9676  9678    1
  6189 19957 19959    1
  6190  6088  6090    1
  6191 12502 12504    1
  6192  1450  1452    1
  6193  6196  6198    1
  6194 12610 12612    1
  6195 19978 19980    1
  6196 17950 17952    1
  6197  9715  9717    1
  6198 14650 14652    1
  6199 19117 19119    1
  6200  8236  8238    1
  6201  3487  3489    1
  6202  2641  2643    1
  6203 16129 16131    1
  6204  6369  6367    1
  6205 12783 12781    1
  6206  4581  4579    1
  6207  8409  8407    1
  6208   516   514    1
  6209  2748  2746    1
  6210 10995 10993    1
  6211  1557  1555    1
  6212 14823 14821    1
  6213  6454  6455    1
  6214  6454  6456    1
  6215 14908 14909    1
  6216 14908 14910    1
  6217  4624  4625    1
  6218  4624  4626    1
  6219  2794  2795    1
  6220  2794  2796    1
  6221  1603  1604    1
  6222  1603  1605    1
  6223   538   539    1
  6224   538   540    1
  6225 12868 12869    1
  6226 12868 12870    1
  6227  8494  8495    1
  6228  8494  8496    1
  6229 11038 11039    1
  6230 11038 11040    1
  6231 19300 19302    1
  6232 18133 18135    1
  6233  6508  6510    1
  6234 12922 12924    1
  6235  8548  8550    1
  6236  4669  4671    1
  6237 14962 14964    1
  6238 11083 11085    1
  6239 17080 17082    1
  6240  3521  3520    1
  6241  1490  1489    1
  6242 14717 14716    1
  6243  9773  9772    1
  6244  6263  6262    1
  6245  2681  2680    1
  6246 12677 12676    1
  6247 16187 16186    1
  6248  8303  8302    1
  6249 14561 14560    1
  6250 12521 12520    1
  6251 16946 16945    1
  6252 10841 10840    1
  6253  6107  6106    1
  6254  4427  4426    1
  6255 17900 17899    1
  6256  8147  8146    1
  6257 19067 19066    1
  6258 12928 12930    1
  6259 11086 11088    1
  6260  4672  4674    1
  6261  6514  6516    1
  6262 14968 14970    1
  6263  8554  8556    1
  6264  2821  2823    1
  6265  1630  1632    1
  6266   559   561    1
  6267 14626 14627    1
  6268 17938 17939    1
  6269  4489  4490    1
  6270  8212  8213    1
  6271 10903 10904    1
  6272 19105 19106    1
  6273 16984 16985    1
  6274 12586 12587    1
  6275  6172  6173    1
  6276 12802 12804    1
  6277 12802 12803    1
  6278  2761  2763    1
  6279  2761  2762    1
  6280  6388  6390    1
  6281  6388  6389    1
  6282   523   525    1
  6283   523   524    1
  6284  1570  1572    1
  6285  1570  1571    1
  6286  8428  8430    1
  6287  8428  8429    1
  6288  4594  4596    1
  6289  4594  4595    1
  6290 11008 11010    1
  6291 11008 11009    1
  6292 14842 14844    1
  6293 14842 14843    1
  6294 14961 14959    1
  6295  2820  2818    1
  6296   558   556    1
  6297 12921 12919    1
  6298 17079 17077    1
  6299 18132 18130    1
  6300 19299 19297    1
  6301  4668  4666    1
  6302  6507  6505    1
  6303  1629  1627    1
  6304 11082 11080    1
  6305  8547  8545    1
  6306  3455  3454    1
  6307  2564  2563    1
  6308  1373  1372    1
  6309  6071  6070    1
  6310  8111  8110    1
  6311 14525 14524    1
  6312 12485 12484    1
  6313  9662  9661    1
  6314 16076 16075    1
  6315 19232 19231    1
  6316 11012 11011    1
  6317 14846 14845    1
  6318  8432  8431    1
  6319  4598  4597    1
  6320 18065 18064    1
  6321  6392  6391    1
  6322 17039 17038    1
  6323 12806 12805    1
  6324  6505  6506    1
  6325 19297 19298    1
  6326   556   557    1
  6327  1627  1628    1
  6328  4666  4667    1
  6329  2818  2819    1
  6330 11080 11081    1
  6331 12919 12920    1
  6332 14959 14960    1
  6333 18130 18131    1
  6334 17077 17078    1
  6335  8545  8546    1
  6336 14512 14513    1
  6337  2557  2558    1
  6338  3448  3449    1
  6339  9649  9650    1
  6340  1366  1367    1
  6341  6058  6059    1
  6342 16063 16064    1
  6343 12472 12473    1
  6344  8098  8099    1
  6345 14795 14794    1
  6346  2732  2731    1
  6347  8381  8380    1
  6348 16241 16240    1
  6349  6341  6340    1
  6350  1541  1540    1
  6351 12755 12754    1
  6352  9827  9826    1
  6353  3560  3559    1
  6354  4597  4599    1
  6355 17038 17040    1
  6356 18064 18066    1
  6357 19231 19233    1
  6358 14845 14847    1
  6359 11011 11013    1
  6360 12805 12807    1
  6361  8431  8433    1
  6362  6391  6393    1
  6363  4455  4453    1
  6364 16965 16963    1
  6365 14592 14590    1
  6366  8178  8176    1
  6367  6138  6136    1
  6368  2598  2596    1
  6369 19086 19084    1
  6370 17919 17917    1
  6371  1407  1405    1
  6372   429   427    1
  6373 10869 10867    1
  6374 12552 12550    1
  6375 12762 12760    1
  6376  6348  6346    1
  6377 20052 20050    1
  6378 18042 18040    1
  6379 14802 14800    1
  6380  8388  8386    1
  6381  9834  9832    1
  6382 19209 19207    1
  6383 16248 16246    1
  6384 12743 12742    1
  6385 19196 19195    1
  6386  8369  8368    1
  6387  9815  9814    1
  6388 20039 20038    1
  6389 14783 14782    1
  6390 18029 18028    1
  6391  6329  6328    1
  6392 16229 16228    1
  6393  8252  8251    1
  6394  4511  4510    1
  6395 10925 10924    1
  6396  9728  9727    1
  6397  1463  1462    1
  6398  2654  2653    1
  6399 14666 14665    1
  6400 16142 16141    1
  6401   470   469    1
  6402 12626 12625    1
  6403  6212  6211    1
  6404  3500  3499    1
  6405 12761 12760    1
  6406 20051 20050    1
  6407 16247 16246    1
  6408  9833  9832    1
  6409  6347  6346    1
  6410 18041 18040    1
  6411 14801 14800    1
  6412 19208 19207    1
  6413  8387  8386    1
  6414 16947 16945    1
  6415 17901 17899    1
  6416 14562 14560    1
  6417 12522 12520    1
  6418 19068 19066    1
  6419  4428  4426    1
  6420 10842 10840    1
  6421  8148  8146    1
  6422  6108  6106    1
  6423  6328  6330    1
  6424 16228 16230    1
  6425 12742 12744    1
  6426  8368  8370    1
  6427 19195 19197    1
  6428 18028 18030    1
  6429 14782 14784    1
  6430 20038 20040    1
  6431  9814  9816    1
  6432 14591 14590    1
  6433 12551 12550    1
  6434  6137  6136    1
  6435  4454  4453    1
  6436 16964 16963    1
  6437   428   427    1
  6438 19085 19084    1
  6439  8177  8176    1
  6440  1406  1405    1
  6441 10868 10867    1
  6442 17918 17917    1
  6443  2597  2596    1
  6444 17028 17026    1
  6445 12780 12778    1
  6446  8406  8404    1
  6447 20061 20059    1
  6448 18051 18049    1
  6449 14820 14818    1
  6450  4578  4576    1
  6451  6366  6364    1
  6452 16263 16261    1
  6453 19218 19216    1
  6454  9849  9847    1
  6455 10992 10990    1
  6456 16234 16236    1
  6457 16234 16235    1
  6458  6334  6336    1
  6459  6334  6335    1
  6460  9820  9822    1
  6461  9820  9821    1
  6462  3553  3555    1
  6463  3553  3554    1
  6464  2725  2727    1
  6465  2725  2726    1
  6466   499   501    1
  6467   499   500    1
  6468 10972 10974    1
  6469 10972 10973    1
  6470 14788 14790    1
  6471 14788 14789    1
  6472  8374  8376    1
  6473  8374  8375    1
  6474 12748 12750    1
  6475 12748 12749    1
  6476  1534  1536    1
  6477  1534  1535    1
  6478  4558  4560    1
  6479  4558  4559    1
  6480 19076 19075    1
  6481 17909 17908    1
  6482  8162  8161    1
  6483  4439  4438    1
  6484 10853 10852    1
  6485 16955 16954    1
  6486 12536 12535    1
  6487  6122  6121    1
  6488 14576 14575    1
  6489  9663  9661    1
  6490  3456  3454    1
  6491 12486 12484    1
  6492  6072  6070    1
  6493  8112  8110    1
  6494 14526 14524    1
  6495 16077 16075    1
  6496  1374  1372    1
  6497  2565  2563    1
  6498 12913 12915    1
  6499 12913 12914    1
  6500 14953 14955    1
  6501 14953 14954    1
  6502  3601  3603    1
  6503  3601  3602    1
  6504  2812  2814    1
  6505  2812  2813    1
  6506  8539  8541    1
  6507  8539  8540    1
  6508  1621  1623    1
  6509  1621  1622    1
  6510  6499  6501    1
  6511  6499  6500    1
  6512  9913  9915    1
  6513  9913  9914    1
  6514 16327 16329    1
  6515 16327 16328    1
  6516 11043 11041    1
  6517  4629  4627    1
  6518  6459  6457    1
  6519 18105 18103    1
  6520 17055 17053    1
  6521 12873 12871    1
  6522 14913 14911    1
  6523  8499  8497    1
  6524 19272 19270    1
  6525 11123 11122    1
  6526 15032 15031    1
  6527  6578  6577    1
  6528  4709  4708    1
  6529  2861  2860    1
  6530 12992 12991    1
  6531  1670  1669    1
  6532   578   577    1
  6533  8618  8617    1
  6534  9812  9811    1
  6535  8366  8365    1
  6536 20036 20035    1
  6537 16226 16225    1
  6538 19193 19192    1
  6539 14780 14779    1
  6540 18026 18025    1
  6541  6326  6325    1
  6542 12740 12739    1
  6543  6121  6123    1
  6544 16954 16956    1
  6545 17908 17910    1
  6546 14575 14577    1
  6547 12535 12537    1
  6548  4438  4440    1
  6549 10852 10854    1
  6550  8161  8163    1
  6551 19075 19077    1
  6552 14667 14665    1
  6553 10926 10924    1
  6554  1464  1462    1
  6555 12627 12625    1
  6556  8253  8251    1
  6557  3501  3499    1
  6558  9729  9727    1
  6559  4512  4510    1
  6560 16143 16141    1
  6561  2655  2653    1
  6562   471   469    1
  6563  6213  6211    1
  6564  6579  6577    1
  6565 11124 11122    1
  6566  4710  4708    1
  6567 15033 15031    1
  6568  8619  8617    1
  6569  2862  2860    1
  6570  1671  1669    1
  6571 12993 12991    1
  6572   579   577    1
  6573  6365  6364    1
  6574 14819 14818    1
  6575  9848  9847    1
  6576 17027 17026    1
  6577 10991 10990    1
  6578  8405  8404    1
  6579 20060 20059    1
  6580 18050 18049    1
  6581 12779 12778    1
  6582  4577  4576    1
  6583 16262 16261    1
  6584 19217 19216    1
  6585 16359 16357    1
  6586  1668  1666    1
  6587  3627  3625    1
  6588 15027 15025    1
  6589 18171 18169    1
  6590 20115 20113    1
  6591  9945  9943    1
  6592  2859  2857    1
  6593  6573  6571    1
  6594 19338 19336    1
  6595  8613  8611    1
  6596 12987 12985    1
  6597  1492  1494    1
  6598  1492  1493    1
  6599 12679 12681    1
  6600 12679 12680    1
  6601  2683  2685    1
  6602  2683  2684    1
  6603 14719 14721    1
  6604 14719 14720    1
  6605  8305  8307    1
  6606  8305  8306    1
  6607 20020 20022    1
  6608 20020 20021    1
  6609 17995 17997    1
  6610 17995 17996    1
  6611 19162 19164    1
  6612 19162 19163    1
  6613  9775  9777    1
  6614  9775  9776    1
  6615 16189 16191    1
  6616 16189 16190    1
  6617  3523  3525    1
  6618  3523  3524    1
  6619  6265  6267    1
  6620  6265  6266    1
  6621 17053 17054    1
  6622 19270 19271    1
  6623 18103 18104    1
  6624  8497  8498    1
  6625  4627  4628    1
  6626 11041 11042    1
  6627  6457  6458    1
  6628 12871 12872    1
  6629 14911 14912    1
  6630  8391  8389    1
  6631 10977 10975    1
  6632  6351  6349    1
  6633  2736  2734    1
  6634   504   502    1
  6635  9837  9835    1
  6636  3564  3562    1
  6637 16251 16249    1
  6638  4563  4561    1
  6639 14805 14803    1
  6640 12765 12763    1
  6641  1545  1543    1
  6642 19346 19345    1
  6643 13004 13003    1
  6644 18179 18178    1
  6645  6590  6589    1
  6646 20120 20119    1
  6647  8630  8629    1
  6648 15044 15043    1
  6649 16370 16369    1
  6650  9956  9955    1
  6651  9669  9667    1
  6652 19050 19048    1
  6653 19956 19954    1
  6654 17883 17881    1
  6655  8121  8119    1
  6656 14535 14533    1
  6657  6081  6079    1
  6658 12495 12493    1
  6659 16083 16081    1
  6660  7776  7774    1
  6661 10635 10633    1
  6662 12150 12148    1
  6663  4221  4219    1
  6664   300   298    1
  6665  5736  5734    1
  6666  2379  2377    1
  6667 14190 14188    1
  6668  1188  1186    1
  6669  5750  5749    1
  6670  2387  2386    1
  6671  7790  7789    1
  6672   305   304    1
  6673 10646 10645    1
  6674 12164 12163    1
  6675 14204 14203    1
  6676  4232  4231    1
  6677  1196  1195    1
  6678  9835  9836    1
  6679  6349  6350    1
  6680  4561  4562    1
  6681 14803 14804    1
  6682   502   503    1
  6683  2734  2735    1
  6684 10975 10976    1
  6685  3562  3563    1
  6686  1543  1544    1
  6687 16249 16250    1
  6688 12763 12764    1
  6689  8389  8390    1
  6690 19345 19347    1
  6691 18178 18180    1
  6692 20119 20121    1
  6693 16369 16371    1
  6694  9955  9957    1
  6695  6589  6591    1
  6696  8629  8631    1
  6697 15043 15045    1
  6698 13003 13005    1
  6699 19192 19194    1
  6700  6325  6327    1
  6701 16225 16227    1
  6702 18025 18027    1
  6703  8365  8367    1
  6704 14779 14781    1
  6705  9811  9813    1
  6706 20035 20037    1
  6707 12739 12741    1
  6708 12733 12734    1
  6709 12733 12735    1
  6710  3547  3548    1
  6711  3547  3549    1
  6712 16219 16220    1
  6713 16219 16221    1
  6714 14773 14774    1
  6715 14773 14775    1
  6716  8359  8360    1
  6717  8359  8361    1
  6718  1528  1529    1
  6719  1528  1530    1
  6720  9805  9806    1
  6721  9805  9807    1
  6722  6319  6320    1
  6723  6319  6321    1
  6724  2719  2720    1
  6725  2719  2721    1
  6726  1666  1667    1
  6727 19336 19337    1
  6728 18169 18170    1
  6729  6571  6572    1
  6730 15025 15026    1
  6731  9943  9944    1
  6732 20113 20114    1
  6733 12985 12986    1
  6734  3625  3626    1
  6735  8611  8612    1
  6736 16357 16358    1
  6737  2857  2858    1
  6738  8185  8187    1
  6739  8185  8186    1
  6740  4462  4464    1
  6741  4462  4463    1
  6742   433   435    1
  6743   433   434    1
  6744  2602  2604    1
  6745  2602  2603    1
  6746  6145  6147    1
  6747  6145  6146    1
  6748 16969 16971    1
  6749 16969 16970    1
  6750 19090 19092    1
  6751 19090 19091    1
  6752 14599 14601    1
  6753 14599 14600    1
  6754 12559 12561    1
  6755 12559 12560    1
  6756 17923 17925    1
  6757 17923 17924    1
  6758 10876 10878    1
  6759 10876 10877    1
  6760  1411  1413    1
  6761  1411  1412    1
  6762 10686 10684    1
  6763 12240 12238    1
  6764  5826  5824    1
  6765  4272  4270    1
  6766  2427  2425    1
  6767  7866  7864    1
  6768  1236  1234    1
  6769 14280 14278    1
  6770   327   325    1
  6771 17109 17107    1
  6772  4713  4711    1
  6773  6588  6586    1
  6774 13002 13000    1
  6775  8628  8626    1
  6776 11127 11125    1
  6777 19344 19342    1
  6778 15042 15040    1
  6779 18177 18175    1
  6780 11919 11917    1
  6781 13959 13957    1
  6782   219   217    1
  6783 10512 10510    1
  6784  2232  2230    1
  6785  1041  1039    1
  6786  4098  4096    1
  6787  7545  7543    1
  6788  5505  5503    1
  6789 18175 18176    1
  6790 11125 11126    1
  6791 17107 17108    1
  6792 19342 19343    1
  6793  8626  8627    1
  6794 13000 13001    1
  6795 15040 15041    1
  6796  6586  6587    1
  6797  4711  4712    1
  6798 19048 19049    1
  6799 17881 17882    1
  6800 16081 16082    1
  6801  9667  9668    1
  6802 19954 19955    1
  6803  8119  8120    1
  6804 14533 14534    1
  6805 12493 12494    1
  6806  6079  6080    1
  6807 12105 12103    1
  6808  1161  1159    1
  6809 14145 14143    1
  6810 19830 19828    1
  6811  7731  7729    1
  6812 17664 17662    1
  6813  2352  2350    1
  6814  5691  5689    1
  6815  3342  3340    1
  6816 15867 15865    1
  6817 18831 18829    1
  6818  9453  9451    1
  6819  2366  2365    1
  6820 12125 12124    1
  6821 19838 19837    1
  6822  7751  7750    1
  6823  1175  1174    1
  6824  5711  5710    1
  6825 14165 14164    1
  6826  4199  4198    1
  6827 17672 17671    1
  6828 16814 16813    1
  6829 18839 18838    1
  6830  3353  3352    1
  6831 15884 15883    1
  6832 10613 10612    1
  6833   290   289    1
  6834  9470  9469    1
  6835  5749  5751    1
  6836 10645 10647    1
  6837  7789  7791    1
  6838  4231  4233    1
  6839 14203 14205    1
  6840  2386  2388    1
  6841  1195  1197    1
  6842   304   306    1
  6843 12163 12165    1
  6844 14188 14189    1
  6845  1186  1187    1
  6846  5734  5735    1
  6847  2377  2378    1
  6848  4219  4220    1
  6849 10633 10634    1
  6850 12148 12149    1
  6851   298   299    1
  6852  7774  7775    1
  6853  1155  1153    1
  6854  5676  5674    1
  6855  3336  3334    1
  6856 12090 12088    1
  6857  2346  2344    1
  6858  7716  7714    1
  6859 15852 15850    1
  6860 14130 14128    1
  6861  9438  9436    1
  6862  5840  5839    1
  6863 14294 14293    1
  6864 17750 17749    1
  6865 18917 18916    1
  6866 12254 12253    1
  6867  4286  4285    1
  6868  7880  7879    1
  6869 16865 16864    1
  6870 10700 10699    1
  6871 14055 14053    1
  6872  5601  5599    1
  6873 19797 19795    1
  6874 17616 17614    1
  6875 18783 18781    1
  6876 15804 15802    1
  6877  7641  7639    1
  6878  9390  9388    1
  6879 12015 12013    1
  6880 15941 15940    1
  6881  9527  9526    1
  6882 18887 18886    1
  6883 14246 14245    1
  6884 19877 19876    1
  6885 17720 17719    1
  6886 12206 12205    1
  6887  5792  5791    1
  6888  7832  7831    1
  6889 15851 15850    1
  6890  9437  9436    1
  6891  2345  2344    1
  6892  1154  1153    1
  6893 14129 14128    1
  6894  7715  7714    1
  6895  3335  3334    1
  6896 12089 12088    1
  6897  5675  5674    1
  6898  7864  7865    1
  6899 12238 12239    1
  6900 10684 10685    1
  6901  4270  4271    1
  6902   325   326    1
  6903  5824  5825    1
  6904  1234  1235    1
  6905 14278 14279    1
  6906  2425  2426    1
  6907 14245 14247    1
  6908 18886 18888    1
  6909 15940 15942    1
  6910 19876 19878    1
  6911 17719 17721    1
  6912 12205 12207    1
  6913  9526  9528    1
  6914  5791  5793    1
  6915  7831  7833    1
  6916  5503  5504    1
  6917  7543  7544    1
  6918   217   218    1
  6919 11917 11918    1
  6920 10510 10511    1
  6921  2230  2231    1
  6922  4096  4097    1
  6923  1039  1040    1
  6924 13957 13958    1
  6925 17671 17673    1
  6926  2365  2367    1
  6927 10612 10614    1
  6928 15883 15885    1
  6929  9469  9471    1
  6930 18838 18840    1
  6931 16813 16815    1
  6932  3352  3354    1
  6933  7750  7752    1
  6934   289   291    1
  6935 12124 12126    1
  6936  4198  4200    1
  6937 14164 14166    1
  6938 19837 19839    1
  6939  1174  1176    1
  6940  5710  5712    1
  6941 14293 14295    1
  6942 12253 12255    1
  6943 10699 10701    1
  6944 17749 17751    1
  6945 16864 16866    1
  6946  7879  7881    1
  6947  5839  5841    1
  6948  4285  4287    1
  6949 18916 18918    1
  6950 12047 12046    1
  6951  1124  1123    1
  6952  9413  9412    1
  6953 19808 19807    1
  6954 17633 17632    1
  6955  3317  3316    1
  6956  2315  2314    1
  6957 14087 14086    1
  6958  5633  5632    1
  6959 15827 15826    1
  6960 18800 18799    1
  6961  7673  7672    1
  6962 18876 18874    1
  6963  9513  9511    1
  6964 12192 12190    1
  6965 19866 19864    1
  6966  7818  7816    1
  6967 14232 14230    1
  6968 17709 17707    1
  6969  5778  5776    1
  6970 15927 15925    1
  6971  1202  1201    1
  6972  4235  4234    1
  6973  7796  7795    1
  6974  5756  5755    1
  6975   308   307    1
  6976 10649 10648    1
  6977 12170 12169    1
  6978  2393  2392    1
  6979 14210 14209    1
  6980  7698  7696    1
  6981 14112 14110    1
  6982  1140  1138    1
  6983  3324  3322    1
  6984  2331  2329    1
  6985  5658  5656    1
  6986 12072 12070    1
  6987   273   271    1
  6988 15837 15835    1
  6989  4182  4180    1
  6990  9423  9421    1
  6991 10596 10594    1
  6992  9451  9452    1
  6993  1159  1160    1
  6994  2350  2351    1
  6995  5689  5690    1
  6996  3340  3341    1
  6997  7729  7730    1
  6998 18829 18830    1
  6999 19828 19829    1
  7000 17662 17663    1
  7001 12103 12104    1
  7002 14143 14144    1
  7003 15865 15866    1
  7004  4269  4267    1
  7005  5823  5821    1
  7006  7863  7861    1
  7007  2424  2422    1
  7008  1233  1231    1
  7009 12237 12235    1
  7010 10683 10681    1
  7011 14277 14275    1
  7012   324   322    1
  7013  5427  5425    1
  7014  4050  4048    1
  7015 17508 17506    1
  7016 18675 18673    1
  7017 10464 10462    1
  7018 13881 13879    1
  7019  7467  7465    1
  7020 16737 16735    1
  7021 11841 11839    1
  7022 15925 15926    1
  7023 19864 19865    1
  7024 14230 14231    1
  7025  9511  9512    1
  7026 12190 12191    1
  7027  5776  5777    1
  7028  7816  7817    1
  7029 17707 17708    1
  7030 18874 18875    1
  7031  5425  5426    1
  7032 10462 10463    1
  7033 18673 18674    1
  7034 11839 11840    1
  7035 13879 13880    1
  7036  4048  4049    1
  7037 17506 17507    1
  7038 16735 16736    1
  7039  7465  7466    1
  7040 12236 12235    1
  7041 14276 14275    1
  7042  2423  2422    1
  7043  5822  5821    1
  7044  4268  4267    1
  7045  7862  7861    1
  7046 10682 10681    1
  7047   323   322    1
  7048  1232  1231    1
  7049  7835  7834    1
  7050 18890 18889    1
  7051  5795  5794    1
  7052 17723 17722    1
  7053 10655 10654    1
  7054  4241  4240    1
  7055 16838 16837    1
  7056 14249 14248    1
  7057 12209 12208    1
  7058  5761  5763    1
  7059  5761  5762    1
  7060 12175 12177    1
  7061 12175 12176    1
  7062  2398  2400    1
  7063  2398  2399    1
  7064 14215 14217    1
  7065 14215 14216    1
  7066  9496  9498    1
  7067  9496  9497    1
  7068  1207  1209    1
  7069  1207  1208    1
  7070  7801  7803    1
  7071  7801  7802    1
  7072 15910 15912    1
  7073 15910 15911    1
  7074  3367  3369    1
  7075  3367  3368    1
  7076 19772 19771    1
  7077 16790 16789    1
  7078  9362  9361    1
  7079 11984 11983    1
  7080 15776 15775    1
  7081 14024 14023    1
  7082 10556 10555    1
  7083 18758 18757    1
  7084  4142  4141    1
  7085  7610  7609    1
  7086 17591 17590    1
  7087  5570  5569    1
  7088  5755  5757    1
  7089  7795  7797    1
  7090  4234  4236    1
  7091 12169 12171    1
  7092  2392  2394    1
  7093 10648 10650    1
  7094   307   309    1
  7095 14209 14211    1
  7096  1201  1203    1
  7097 18781 18782    1
  7098 17614 17615    1
  7099 12013 12014    1
  7100  5599  5600    1
  7101 14053 14054    1
  7102 19795 19796    1
  7103 15802 15803    1
  7104  7639  7640    1
  7105  9388  9389    1
  7106 10594 10595    1
  7107   271   272    1
  7108  7696  7697    1
  7109  9421  9422    1
  7110  1138  1139    1
  7111 14110 14111    1
  7112  4180  4181    1
  7113  3322  3323    1
  7114  5656  5657    1
  7115  2329  2330    1
  7116 12070 12071    1
  7117 15835 15836    1
  7118  7626  7624    1
  7119  5586  5584    1
  7120  3294  3292    1
  7121 10560 10558    1
  7122  4146  4144    1
  7123 15792 15790    1
  7124 12000 11998    1
  7125  1095  1093    1
  7126  2286  2284    1
  7127  9378  9376    1
  7128 14040 14038    1
  7129   252   250    1
  7130  5606  5605    1
  7131  9395  9394    1
  7132  1106  1105    1
  7133  7646  7645    1
  7134 14060 14059    1
  7135 15809 15808    1
  7136 12020 12019    1
  7137  3302  3301    1
  7138  2297  2296    1
  7139 11936 11935    1
  7140  2243  2242    1
  7141  9326  9325    1
  7142  3257  3256    1
  7143 13976 13975    1
  7144 10529 10528    1
  7145   230   229    1
  7146  5522  5521    1
  7147  4115  4114    1
  7148  7562  7561    1
  7149  1052  1051    1
  7150 15740 15739    1
  7151  5695  5697    1
  7152  5695  5696    1
  7153 12109 12111    1
  7154 12109 12110    1
  7155 19831 19833    1
  7156 19831 19832    1
  7157 14149 14151    1
  7158 14149 14150    1
  7159  9457  9459    1
  7160  9457  9458    1
  7161 15871 15873    1
  7162 15871 15872    1
  7163 17665 17667    1
  7164 17665 17666    1
  7165  7735  7737    1
  7166  7735  7736    1
  7167 18832 18834    1
  7168 18832 18833    1
  7169  1093  1094    1
  7170 15790 15791    1
  7171   250   251    1
  7172  9376  9377    1
  7173  2284  2285    1
  7174 11998 11999    1
  7175  4144  4145    1
  7176 14038 14039    1
  7177 10558 10559    1
  7178  3292  3293    1
  7179  7624  7625    1
  7180  5584  5585    1
  7181  4116  4114    1
  7182  3258  3256    1
  7183 10530 10528    1
  7184 13977 13975    1
  7185  9327  9325    1
  7186 11937 11935    1
  7187  2244  2242    1
  7188  1053  1051    1
  7189  7563  7561    1
  7190  5523  5521    1
  7191 15741 15739    1
  7192   231   229    1
  7193 17632 17634    1
  7194  5632  5634    1
  7195  3316  3318    1
  7196 18799 18801    1
  7197 14086 14088    1
  7198 15826 15828    1
  7199  9412  9414    1
  7200  2314  2316    1
  7201  7672  7674    1
  7202 19807 19809    1
  7203  1123  1125    1
  7204 12046 12048    1
  7205 10440 10438    1
  7206 13842 13840    1
  7207   978   976    1
  7208 11802 11800    1
  7209 17487 17485    1
  7210 16722 16720    1
  7211  2169  2167    1
  7212   177   175    1
  7213  4026  4024    1
  7214 18654 18652    1
  7215  5388  5386    1
  7216  7428  7426    1
  7217 15860 15859    1
  7218  9446  9445    1
  7219  7724  7723    1
  7220  5684  5683    1
  7221 12098 12097    1
  7222 19826 19825    1
  7223 14138 14137    1
  7224 18827 18826    1
  7225 17660 17659    1
  7226 15731 15730    1
  7227  5453  5452    1
  7228  7493  7492    1
  7229 18689 18688    1
  7230  9317  9316    1
  7231 19751 19750    1
  7232 11867 11866    1
  7233 17522 17521    1
  7234 13907 13906    1
  7235 12208 12210    1
  7236 17722 17724    1
  7237  5794  5796    1
  7238 14248 14250    1
  7239  7834  7836    1
  7240 10654 10656    1
  7241 18889 18891    1
  7242 16837 16839    1
  7243  4240  4242    1
  7244 17590 17592    1
  7245 15775 15777    1
  7246 14023 14025    1
  7247 18757 18759    1
  7248 11983 11985    1
  7249 16789 16791    1
  7250  9361  9363    1
  7251  4141  4143    1
  7252 19771 19773    1
  7253 10555 10557    1
  7254  5569  5571    1
  7255  7609  7611    1
  7256  1141  1143    1
  7257  1141  1142    1
  7258 10597 10599    1
  7259 10597 10598    1
  7260  5659  5661    1
  7261  5659  5660    1
  7262  4183  4185    1
  7263  4183  4184    1
  7264 12073 12075    1
  7265 12073 12074    1
  7266   274   276    1
  7267   274   275    1
  7268  2332  2334    1
  7269  2332  2333    1
  7270 14113 14115    1
  7271 14113 14114    1
  7272  7699  7701    1
  7273  7699  7700    1
  7274  7645  7647    1
  7275  1105  1107    1
  7276 15808 15810    1
  7277  9394  9396    1
  7278  5605  5607    1
  7279  2296  2298    1
  7280 14059 14061    1
  7281  3301  3303    1
  7282 12019 12021    1
  7283 19752 19750    1
  7284  5454  5452    1
  7285 17523 17521    1
  7286  9318  9316    1
  7287  7494  7492    1
  7288 13908 13906    1
  7289 18690 18688    1
  7290 11868 11866    1
  7291 15732 15730    1
  7292 18652 18653    1
  7293   175   176    1
  7294  5386  5387    1
  7295   976   977    1
  7296 13840 13841    1
  7297 10438 10439    1
  7298  4024  4025    1
  7299  2167  2168    1
  7300  7426  7427    1
  7301 11800 11801    1
  7302 16720 16721    1
  7303 17485 17486    1
  7304 18750 18748    1
  7305 10548 10546    1
  7306 16788 16786    1
  7307  7593  7591    1
  7308  5553  5551    1
  7309  4134  4132    1
  7310 11967 11965    1
  7311 14007 14005    1
  7312 17583 17581    1
  7313 13817 13816    1
  7314  2159  2158    1
  7315  3221  3220    1
  7316   968   967    1
  7317  7403  7402    1
  7318  9245  9244    1
  7319  5363  5362    1
  7320 15659 15658    1
  7321 11777 11776    1
  7322 17703 17701    1
  7323  3366  3364    1
  7324 18870 18868    1
  7325 19860 19858    1
  7326  2397  2395    1
  7327 15909 15907    1
  7328  1206  1204    1
  7329 14214 14212    1
  7330 12174 12172    1
  7331  7800  7798    1
  7332  5760  5758    1
  7333  9495  9493    1
  7334  3311  3310    1
  7335  5621  5620    1
  7336 12035 12034    1
  7337 14075 14074    1
  7338  1118  1117    1
  7339 15821 15820    1
  7340  9407  9406    1
  7341  7661  7660    1
  7342  2309  2308    1
  7343 17661 17659    1
  7344  5685  5683    1
  7345 12099 12097    1
  7346 14139 14137    1
  7347 19827 19825    1
  7348  9447  9445    1
  7349 15861 15859    1
  7350  7725  7723    1
  7351 18828 18826    1
  7352 10547 10546    1
  7353  7592  7591    1
  7354 16787 16786    1
  7355 18749 18748    1
  7356 11966 11965    1
  7357 17582 17581    1
  7358 14006 14005    1
  7359  5552  5551    1
  7360  4133  4132    1
  7361  7973  7972    1
  7362  9578  9577    1
  7363 15992 15991    1
  7364  5933  5932    1
  7365 14387 14386    1
  7366  1295  1294    1
  7367  3413  3412    1
  7368  2486  2485    1
  7369 12347 12346    1
  7370   228   226    1
  7371  2241  2239    1
  7372 18729 18727    1
  7373  5517  5515    1
  7374  4110  4108    1
  7375 17562 17560    1
  7376 13971 13969    1
  7377 10524 10522    1
  7378 16773 16771    1
  7379 11931 11929    1
  7380  7557  7555    1
  7381  1050  1048    1
  7382 16733 16732    1
  7383  4043  4042    1
  7384 11828 11827    1
  7385  9281  9280    1
  7386 15695 15694    1
  7387 13868 13867    1
  7388 18668 18667    1
  7389  5414  5413    1
  7390 19733 19732    1
  7391  7454  7453    1
  7392 10457 10456    1
  7393 17501 17500    1
  7394 12332 12331    1
  7395  7958  7957    1
  7396  4331  4330    1
  7397  5918  5917    1
  7398 14372 14371    1
  7399 10745 10744    1
  7400  1283  1282    1
  7401  2474  2473    1
  7402   350   349    1
  7403 11827 11829    1
  7404  7453  7455    1
  7405  9280  9282    1
  7406  5413  5415    1
  7407  4042  4044    1
  7408 10456 10458    1
  7409 18667 18669    1
  7410 13867 13869    1
  7411 15694 15696    1
  7412 17500 17502    1
  7413 19732 19734    1
  7414 16732 16734    1
  7415 18727 18728    1
  7416  2239  2240    1
  7417  4108  4109    1
  7418  1048  1049    1
  7419  5515  5516    1
  7420 13969 13970    1
  7421 11929 11930    1
  7422 17560 17561    1
  7423 16771 16772    1
  7424   226   227    1
  7425 10522 10523    1
  7426  7555  7556    1
  7427  7957  7959    1
  7428  5917  5919    1
  7429 12331 12333    1
  7430  4330  4332    1
  7431 14371 14373    1
  7432  2473  2475    1
  7433 10744 10746    1
  7434  1282  1284    1
  7435   349   351    1
  7436 19766 19765    1
  7437 15764 15763    1
  7438 11972 11971    1
  7439 17585 17584    1
  7440 14012 14011    1
  7441 18752 18751    1
  7442  1079  1078    1
  7443  5558  5557    1
  7444  2270  2269    1
  7445  9350  9349    1
  7446  3278  3277    1
  7447  7598  7597    1
  7448 12039 12037    1
  7449  1122  1120    1
  7450  9411  9409    1
  7451  5625  5623    1
  7452  2313  2311    1
  7453  3315  3313    1
  7454 14079 14077    1
  7455  7665  7663    1
  7456 15825 15823    1
  7457 18862 18863    1
  7458 18862 18864    1
  7459  7786  7787    1
  7460  7786  7788    1
  7461 10642 10643    1
  7462 10642 10644    1
  7463 14200 14201    1
  7464 14200 14202    1
  7465  5746  5747    1
  7466  5746  5748    1
  7467 12160 12161    1
  7468 12160 12162    1
  7469 16834 16835    1
  7470 16834 16836    1
  7471 17695 17696    1
  7472 17695 17697    1
  7473  4228  4229    1
  7474  4228  4230    1
  7475  7854  7852    1
  7476  2421  2419    1
  7477 14268 14266    1
  7478   321   319    1
  7479 10674 10672    1
  7480  5814  5812    1
  7481 12228 12226    1
  7482  1230  1228    1
  7483  4260  4258    1
  7484   269   268    1
  7485  7688  7687    1
  7486  4172  4171    1
  7487 12062 12061    1
  7488 14102 14101    1
  7489  5648  5647    1
  7490  2327  2326    1
  7491 10586 10585    1
  7492  1136  1135    1
  7493  9468  9466    1
  7494 12120 12118    1
  7495  4194  4192    1
  7496  3351  3349    1
  7497  7746  7744    1
  7498   285   283    1
  7499 14160 14158    1
  7500 15882 15880    1
  7501  1170  1168    1
  7502  2361  2359    1
  7503  5706  5704    1
  7504 10608 10606    1
  7505  5620  5622    1
  7506  3310  3312    1
  7507  9406  9408    1
  7508 14074 14076    1
  7509  2308  2310    1
  7510  7660  7662    1
  7511 12034 12036    1
  7512  1117  1119    1
  7513 15820 15822    1
  7514 12172 12173    1
  7515  1204  1205    1
  7516  7798  7799    1
  7517  5758  5759    1
  7518 15907 15908    1
  7519  9493  9494    1
  7520  2395  2396    1
  7521 18868 18869    1
  7522  3364  3365    1
  7523 14212 14213    1
  7524 19858 19859    1
  7525 17701 17702    1
  7526  5647  5649    1
  7527 10585 10587    1
  7528  2326  2328    1
  7529  1135  1137    1
  7530   268   270    1
  7531  7687  7689    1
  7532 14101 14103    1
  7533 12061 12063    1
  7534  4171  4173    1
  7535 11776 11778    1
  7536  3220  3222    1
  7537 15658 15660    1
  7538 13816 13818    1
  7539  5362  5364    1
  7540  9244  9246    1
  7541  2158  2160    1
  7542  7402  7404    1
  7543   967   969    1
  7544 12025 12027    1
  7545 12025 12026    1
  7546 19801 19803    1
  7547 19801 19802    1
  7548 15811 15813    1
  7549 15811 15812    1
  7550 17620 17622    1
  7551 17620 17621    1
  7552 18787 18789    1
  7553 18787 18788    1
  7554  7651  7653    1
  7555  7651  7652    1
  7556  9397  9399    1
  7557  9397  9398    1
  7558  5611  5613    1
  7559  5611  5612    1
  7560 14065 14067    1
  7561 14065 14066    1
  7562  3412  3414    1
  7563  2485  2487    1
  7564  5932  5934    1
  7565  1294  1296    1
  7566  9577  9579    1
  7567 15991 15993    1
  7568 12346 12348    1
  7569 14386 14388    1
  7570  7972  7974    1
  7571 15994 15996    1
  7572 15994 15995    1
  7573  2488  2490    1
  7574  2488  2489    1
  7575 12349 12351    1
  7576 12349 12350    1
  7577  3415  3417    1
  7578  3415  3416    1
  7579 14389 14391    1
  7580 14389 14390    1
  7581  5935  5937    1
  7582  5935  5936    1
  7583  7975  7977    1
  7584  7975  7976    1
  7585  9580  9582    1
  7586  9580  9581    1
  7587  1297  1299    1
  7588  1297  1298    1
  7589 18921 18919    1
  7590  5844  5842    1
  7591 16869 16867    1
  7592  7884  7882    1
  7593  4290  4288    1
  7594 12258 12256    1
  7595 10704 10702    1
  7596 17754 17752    1
  7597 14298 14296    1
  7598  5842  5843    1
  7599  7882  7883    1
  7600  4288  4289    1
  7601 17752 17753    1
  7602 18919 18920    1
  7603 12256 12257    1
  7604 14296 14297    1
  7605 10702 10703    1
  7606 16867 16868    1
  7607 17584 17586    1
  7608 18751 18753    1
  7609 14011 14013    1
  7610 15763 15765    1
  7611  9349  9351    1
  7612 11971 11973    1
  7613  1078  1080    1
  7614  2269  2271    1
  7615  3277  3279    1
  7616 19765 19767    1
  7617  7597  7599    1
  7618  5557  5559    1
  7619  1020  1018    1
  7620  2211  2209    1
  7621 16752 16750    1
  7622 10485 10483    1
  7623 11892 11890    1
  7624 18708 18706    1
  7625   198   196    1
  7626 13932 13930    1
  7627  4071  4069    1
  7628  7518  7516    1
  7629 17541 17539    1
  7630  5478  5476    1
  7631  5704  5705    1
  7632 10606 10607    1
  7633   283   284    1
  7634  9466  9467    1
  7635 14158 14159    1
  7636  7744  7745    1
  7637  2359  2360    1
  7638 15880 15881    1
  7639 12118 12119    1
  7640  4192  4193    1
  7641  1168  1169    1
  7642  3349  3350    1
  7643  7955  7954    1
  7644 14369 14368    1
  7645  9569  9568    1
  7646  5915  5914    1
  7647 15983 15982    1
  7648 12329 12328    1
  7649  1280  1279    1
  7650  2471  2470    1
  7651  3407  3406    1
  7652 16799 16798    1
  7653 17630 17629    1
  7654 10574 10573    1
  7655  5630  5629    1
  7656  7670  7669    1
  7657  4160  4159    1
  7658 12044 12043    1
  7659 14084 14083    1
  7660 18797 18796    1
  7661 12227 12226    1
  7662  1229  1228    1
  7663  5813  5812    1
  7664  2420  2419    1
  7665  7853  7852    1
  7666 14267 14266    1
  7667   320   319    1
  7668 10673 10672    1
  7669  4259  4258    1
  7670 15928 15929    1
  7671 15928 15930    1
  7672 17710 17711    1
  7673 17710 17712    1
  7674  9514  9515    1
  7675  9514  9516    1
  7676  5779  5780    1
  7677  5779  5781    1
  7678 18877 18878    1
  7679 18877 18879    1
  7680  7819  7820    1
  7681  7819  7821    1
  7682 14233 14234    1
  7683 14233 14235    1
  7684 12193 12194    1
  7685 12193 12195    1
  7686 19867 19868    1
  7687 19867 19869    1
  7688 11862 11860    1
  7689  7488  7486    1
  7690 19749 19747    1
  7691 13902 13900    1
  7692  5448  5446    1
  7693 17520 17518    1
  7694 15726 15724    1
  7695  9312  9310    1
  7696 18687 18685    1
  7697 10395 10393    1
  7698   144   142    1
  7699  5313  5311    1
  7700  7353  7351    1
  7701 11727 11725    1
  7702  2124  2122    1
  7703   933   931    1
  7704 13767 13765    1
  7705  3981  3979    1
  7706  2465  2464    1
  7707 10733 10732    1
  7708  7943  7942    1
  7709  4319  4318    1
  7710 12317 12316    1
  7711  5903  5902    1
  7712  1274  1273    1
  7713 14357 14356    1
  7714   344   343    1
  7715  3313  3314    1
  7716  2311  2312    1
  7717 14077 14078    1
  7718  9409  9410    1
  7719 15823 15824    1
  7720  5623  5624    1
  7721  7663  7664    1
  7722 12037 12038    1
  7723  1120  1121    1
  7724  7951  7952    1
  7725  7951  7953    1
  7726  5911  5912    1
  7727  5911  5913    1
  7728 14365 14366    1
  7729 14365 14367    1
  7730 10741 10742    1
  7731 10741 10743    1
  7732 17794 17795    1
  7733 17794 17796    1
  7734 12325 12326    1
  7735 12325 12327    1
  7736  4327  4328    1
  7737  4327  4329    1
  7738 16897 16898    1
  7739 16897 16899    1
  7740 18961 18962    1
  7741 18961 18963    1
  7742 13930 13931    1
  7743 18706 18707    1
  7744 10483 10484    1
  7745  5476  5477    1
  7746 17539 17540    1
  7747 11890 11891    1
  7748  4069  4070    1
  7749   196   197    1
  7750  1018  1019    1
  7751  7516  7517    1
  7752 16750 16751    1
  7753  2209  2210    1
  7754 18744 18742    1
  7755  5547  5545    1
  7756 11961 11959    1
  7757 17577 17575    1
  7758   243   241    1
  7759 10545 10543    1
  7760  7587  7585    1
  7761  4131  4129    1
  7762  1071  1069    1
  7763 16785 16783    1
  7764 14001 13999    1
  7765  2262  2260    1
  7766 18685 18686    1
  7767 13900 13901    1
  7768  5446  5447    1
  7769 17518 17519    1
  7770  9310  9311    1
  7771 11860 11861    1
  7772 19747 19748    1
  7773 15724 15725    1
  7774  7486  7487    1
  7775  7617  7615    1
  7776  9369  9367    1
  7777 17598 17596    1
  7778 11991 11989    1
  7779  5577  5575    1
  7780 14031 14029    1
  7781 18765 18763    1
  7782 19779 19777    1
  7783 15783 15781    1
  7784  7581  7579    1
  7785 11955 11953    1
  7786 13995 13993    1
  7787  9339  9337    1
  7788  5541  5539    1
  7789 15753 15751    1
  7790  3270  3268    1
  7791  1068  1066    1
  7792  2259  2257    1
  7793  1279  1281    1
  7794  7954  7956    1
  7795 15982 15984    1
  7796  9568  9570    1
  7797 12328 12330    1
  7798 14368 14370    1
  7799  3406  3408    1
  7800  2470  2472    1
  7801  5914  5916    1
  7802 12318 12316    1
  7803  5904  5902    1
  7804  1275  1273    1
  7805 10734 10732    1
  7806   345   343    1
  7807  2466  2464    1
  7808  4320  4318    1
  7809  7944  7942    1
  7810 14358 14356    1
  7811  5629  5631    1
  7812  4159  4161    1
  7813  7669  7671    1
  7814 18796 18798    1
  7815 16798 16800    1
  7816 10573 10575    1
  7817 14083 14085    1
  7818 17629 17631    1
  7819 12043 12045    1
  7820  5540  5539    1
  7821 11954 11953    1
  7822  9338  9337    1
  7823  2258  2257    1
  7824 13994 13993    1
  7825  3269  3268    1
  7826  7580  7579    1
  7827 15752 15751    1
  7828  1067  1066    1
  7829 16784 16783    1
  7830  2261  2260    1
  7831  7586  7585    1
  7832 14000 13999    1
  7833 10544 10543    1
  7834  1070  1069    1
  7835   242   241    1
  7836 11960 11959    1
  7837  4130  4129    1
  7838  5546  5545    1
  7839 18743 18742    1
  7840 17576 17575    1
  7841  3980  3979    1
  7842 11726 11725    1
  7843 10394 10393    1
  7844   932   931    1
  7845 13766 13765    1
  7846  5312  5311    1
  7847   143   142    1
  7848  7352  7351    1
  7849  2123  2122    1
  7850 17544 17542    1
  7851 10494 10492    1
  7852 11901 11899    1
  7853 13941 13939    1
  7854  5487  5485    1
  7855 18711 18709    1
  7856  7527  7525    1
  7857  4080  4078    1
  7858 16755 16753    1
  7859  5829  5827    1
  7860 14283 14281    1
  7861 17742 17740    1
  7862 16857 16855    1
  7863 10689 10687    1
  7864  7869  7867    1
  7865 18909 18907    1
  7866 12243 12241    1
  7867  4275  4273    1
  7868 14029 14030    1
  7869 17596 17597    1
  7870 18763 18764    1
  7871 15781 15782    1
  7872  5575  5576    1
  7873 19777 19778    1
  7874  7615  7616    1
  7875  9367  9368    1
  7876 11989 11990    1
  7877 17801 17800    1
  7878  7967  7966    1
  7879 12341 12340    1
  7880  9575  9574    1
  7881  5927  5926    1
  7882 15989 15988    1
  7883 19901 19900    1
  7884 18968 18967    1
  7885 14381 14380    1
  7886 13883 13882    1
  7887  3242  3241    1
  7888   188   187    1
  7889 10466 10465    1
  7890  4052  4051    1
  7891  9293  9292    1
  7892 15707 15706    1
  7893  7469  7468    1
  7894 11843 11842    1
  7895  5429  5428    1
  7896  2189  2188    1
  7897   998   997    1
  7898  7867  7868    1
  7899  4273  4274    1
  7900 10687 10688    1
  7901 12241 12242    1
  7902 18907 18908    1
  7903 16855 16856    1
  7904  5827  5828    1
  7905 17740 17741    1
  7906 14281 14282    1
  7907  7710  7708    1
  7908 12084 12082    1
  7909  5670  5668    1
  7910  2340  2338    1
  7911 15846 15844    1
  7912  9432  9430    1
  7913 14124 14122    1
  7914  3330  3328    1
  7915  1149  1147    1
  7916   189   187    1
  7917 15708 15706    1
  7918  4053  4051    1
  7919   999   997    1
  7920  9294  9292    1
  7921  7470  7468    1
  7922 13884 13882    1
  7923 10467 10465    1
  7924  3243  3241    1
  7925 11844 11842    1
  7926  5430  5428    1
  7927  2190  2188    1
  7928 17543 17542    1
  7929 11900 11899    1
  7930  4079  4078    1
  7931  7526  7525    1
  7932 18710 18709    1
  7933 16754 16753    1
  7934  5486  5485    1
  7935 13940 13939    1
  7936 10493 10492    1
  7937 10445 10444    1
  7938 16727 16726    1
  7939  7433  7432    1
  7940 19727 19726    1
  7941 13847 13846    1
  7942 18659 18658    1
  7943 11807 11806    1
  7944  4031  4030    1
  7945  5393  5392    1
  7946 15680 15679    1
  7947  9266  9265    1
  7948 17492 17491    1
  7949 13802 13801    1
  7950 17462 17461    1
  7951 19706 19705    1
  7952 18629 18628    1
  7953  5348  5347    1
  7954 11762 11761    1
  7955 15650 15649    1
  7956  9236  9235    1
  7957  7388  7387    1
  7958 17802 17800    1
  7959 15990 15988    1
  7960 18969 18967    1
  7961 14382 14380    1
  7962  9576  9574    1
  7963 12342 12340    1
  7964  5928  5926    1
  7965  7968  7966    1
  7966 19902 19900    1
  7967  9261  9259    1
  7968 15675 15673    1
  7969  7425  7423    1
  7970  3225  3223    1
  7971   975   973    1
  7972 13839 13837    1
  7973 10437 10435    1
  7974 11799 11797    1
  7975 16719 16717    1
  7976  2166  2164    1
  7977  5385  5383    1
  7978   174   172    1
  7979  4023  4021    1
  7980 18651 18649    1
  7981 19722 19720    1
  7982 17484 17482    1
  7983  5669  5668    1
  7984  1148  1147    1
  7985  9431  9430    1
  7986  3329  3328    1
  7987 15845 15844    1
  7988  7709  7708    1
  7989 12083 12082    1
  7990  2339  2338    1
  7991 14123 14122    1
  7992 10435 10436    1
  7993  7423  7424    1
  7994 11797 11798    1
  7995 19720 19721    1
  7996 15673 15674    1
  7997  2164  2165    1
  7998  4021  4022    1
  7999 17482 17483    1
  8000 16717 16718    1
  8001  9259  9260    1
  8002 18649 18650    1
  8003  3223  3224    1
  8004   973   974    1
  8005 13837 13838    1
  8006   172   173    1
  8007  5383  5384    1
  8008 14252 14251    1
  8009  5798  5797    1
  8010 18893 18892    1
  8011  9530  9529    1
  8012  4244  4243    1
  8013 17726 17725    1
  8014 10658 10657    1
  8015 15944 15943    1
  8016 12212 12211    1
  8017 19880 19879    1
  8018  7838  7837    1
  8019 16841 16840    1
  8020 13785 13783    1
  8021  2139  2137    1
  8022  3993  3991    1
  8023   948   946    1
  8024  5331  5329    1
  8025  7371  7369    1
  8026 10407 10405    1
  8027 11745 11743    1
  8028   156   154    1
  8029 14099 14098    1
  8030 19811 19810    1
  8031  5645  5644    1
  8032 15830 15829    1
  8033 12059 12058    1
  8034  7685  7684    1
  8035  2324  2323    1
  8036 17642 17641    1
  8037  1133  1132    1
  8038 18809 18808    1
  8039  3320  3319    1
  8040  9416  9415    1
  8041  2137  2138    1
  8042 13783 13784    1
  8043 10405 10406    1
  8044  3991  3992    1
  8045  5329  5330    1
  8046   946   947    1
  8047   154   155    1
  8048 11743 11744    1
  8049  7369  7370    1
  8050  2317  2318    1
  8051  2317  2319    1
  8052 14089 14090    1
  8053 14089 14091    1
  8054  4162  4163    1
  8055  4162  4164    1
  8056 10576 10577    1
  8057 10576 10578    1
  8058  7675  7676    1
  8059  7675  7677    1
  8060  1126  1127    1
  8061  1126  1128    1
  8062  5635  5636    1
  8063  5635  5637    1
  8064 12049 12050    1
  8065 12049 12051    1
  8066   262   263    1
  8067   262   264    1
  8068 10749 10747    1
  8069  2478  2476    1
  8070 14376 14374    1
  8071   354   352    1
  8072  7962  7960    1
  8073 12336 12334    1
  8074  5922  5920    1
  8075  1287  1285    1
  8076  4335  4333    1
  8077  2198  2197    1
  8078  9314  9313    1
  8079  5450  5449    1
  8080  7490  7489    1
  8081 11864 11863    1
  8082 13904 13903    1
  8083  1007  1006    1
  8084 15728 15727    1
  8085  3251  3250    1
  8086  9235  9237    1
  8087 13801 13803    1
  8088  7387  7389    1
  8089 17461 17463    1
  8090 15649 15651    1
  8091 18628 18630    1
  8092  5347  5349    1
  8093 19705 19707    1
  8094 11761 11763    1
  8095 15943 15945    1
  8096 10657 10659    1
  8097 18892 18894    1
  8098  4243  4245    1
  8099 16840 16842    1
  8100 19879 19881    1
  8101  5797  5799    1
  8102 17725 17727    1
  8103 14251 14253    1
  8104  7837  7839    1
  8105  9529  9531    1
  8106 12211 12213    1
  8107 10561 10562    1
  8108 10561 10563    1
  8109   253   254    1
  8110   253   255    1
  8111 12001 12002    1
  8112 12001 12003    1
  8113  1096  1097    1
  8114  1096  1098    1
  8115 15793 15794    1
  8116 15793 15795    1
  8117 19786 19787    1
  8118 19786 19788    1
  8119  4147  4148    1
  8120  4147  4149    1
  8121 14041 14042    1
  8122 14041 14043    1
  8123 16792 16793    1
  8124 16792 16794    1
  8125  3295  3296    1
  8126  3295  3297    1
  8127  7627  7628    1
  8128  7627  7629    1
  8129 17605 17606    1
  8130 17605 17607    1
  8131  2287  2288    1
  8132  2287  2289    1
  8133  9379  9380    1
  8134  9379  9381    1
  8135  5587  5588    1
  8136  5587  5589    1
  8137 18772 18773    1
  8138 18772 18774    1
  8139  9265  9267    1
  8140  7432  7434    1
  8141  5392  5394    1
  8142  4030  4032    1
  8143 13846 13848    1
  8144 11806 11808    1
  8145 15679 15681    1
  8146 18658 18660    1
  8147 16726 16728    1
  8148 10444 10446    1
  8149 19726 19728    1
  8150 17491 17493    1
  8151 14049 14047    1
  8152  2295  2293    1
  8153 12009 12007    1
  8154   258   256    1
  8155  4152  4150    1
  8156  1104  1102    1
  8157 10566 10564    1
  8158  5595  5593    1
  8159  7635  7633    1
  8160   352   353    1
  8161  2476  2477    1
  8162  7960  7961    1
  8163 14374 14375    1
  8164  4333  4334    1
  8165  1285  1286    1
  8166  5920  5921    1
  8167 10747 10748    1
  8168 12334 12335    1
  8169  7489  7491    1
  8170  2197  2199    1
  8171  3250  3252    1
  8172 13903 13905    1
  8173  5449  5451    1
  8174  9313  9315    1
  8175 11863 11865    1
  8176  1006  1008    1
  8177 15727 15729    1
  8178  9253  9254    1
  8179  9253  9255    1
  8180  7417  7418    1
  8181  7417  7419    1
  8182 13831 13832    1
  8183 13831 13833    1
  8184  5377  5378    1
  8185  5377  5379    1
  8186 15667 15668    1
  8187 15667 15669    1
  8188 19714 19715    1
  8189 19714 19716    1
  8190 11791 11792    1
  8191 11791 11793    1
  8192 17476 17477    1
  8193 17476 17478    1
  8194 18643 18644    1
  8195 18643 18645    1
  8196 12183 12181    1
  8197  2406  2404    1
  8198  3375  3373    1
  8199  9504  9502    1
  8200  5769  5767    1
  8201 14223 14221    1
  8202 15918 15916    1
  8203  7809  7807    1
  8204  1215  1213    1
  8205 15787 15789    1
  8206 15787 15788    1
  8207  3289  3291    1
  8208  3289  3290    1
  8209 17602 17604    1
  8210 17602 17603    1
  8211  7621  7623    1
  8212  7621  7622    1
  8213 18769 18771    1
  8214 18769 18770    1
  8215  1090  1092    1
  8216  1090  1091    1
  8217  5581  5583    1
  8218  5581  5582    1
  8219  2281  2283    1
  8220  2281  2282    1
  8221  9373  9375    1
  8222  9373  9374    1
  8223 14035 14037    1
  8224 14035 14036    1
  8225 11995 11997    1
  8226 11995 11996    1
  8227 19783 19785    1
  8228 19783 19784    1
  8229 14096 14095    1
  8230 16805 16804    1
  8231  4169  4168    1
  8232 18806 18805    1
  8233 10583 10582    1
  8234 17639 17638    1
  8235  7682  7681    1
  8236 12056 12055    1
  8237  5642  5641    1
  8238  7633  7634    1
  8239 10564 10565    1
  8240  2293  2294    1
  8241  5593  5594    1
  8242 12007 12008    1
  8243 14047 14048    1
  8244   256   257    1
  8245  4150  4151    1
  8246  1102  1103    1
  8247   204   202    1
  8248  5484  5482    1
  8249 10491 10489    1
  8250  4077  4075    1
  8251  7524  7522    1
  8252  1026  1024    1
  8253 11898 11896    1
  8254 13938 13936    1
  8255  2217  2215    1
  8256 13874 13873    1
  8257  9287  9286    1
  8258 11834 11833    1
  8259 19736 19735    1
  8260 17504 17503    1
  8261 15701 15700    1
  8262  5420  5419    1
  8263 18671 18670    1
  8264  7460  7459    1
  8265 14221 14222    1
  8266  1213  1214    1
  8267  2404  2405    1
  8268  7807  7808    1
  8269  3373  3374    1
  8270 15916 15917    1
  8271 12181 12182    1
  8272  5767  5768    1
  8273  9502  9503    1
  8274 14100 14098    1
  8275 17643 17641    1
  8276  9417  9415    1
  8277 18810 18808    1
  8278 12060 12058    1
  8279  7686  7684    1
  8280  5646  5644    1
  8281 15831 15829    1
  8282  2325  2323    1
  8283  3321  3319    1
  8284 19812 19810    1
  8285  1134  1132    1
  8286  5901  5899    1
  8287 12315 12313    1
  8288 14355 14353    1
  8289  9567  9565    1
  8290  2463  2461    1
  8291 15981 15979    1
  8292  7941  7939    1
  8293  3405  3403    1
  8294  1272  1270    1
  8295 10499 10498    1
  8296  7532  7531    1
  8297 17549 17548    1
  8298 11906 11905    1
  8299  4085  4084    1
  8300 18716 18715    1
  8301 13946 13945    1
  8302 16760 16759    1
  8303  5492  5491    1
  8304  4075  4076    1
  8305  1024  1025    1
  8306 11896 11897    1
  8307  7522  7523    1
  8308  5482  5483    1
  8309   202   203    1
  8310 13936 13937    1
  8311 10489 10490    1
  8312  2215  2216    1
  8313  5846  5845    1
  8314 12260 12259    1
  8315 19886 19885    1
  8316  7886  7885    1
  8317 18923 18922    1
  8318 17756 17755    1
  8319 15953 15952    1
  8320 14300 14299    1
  8321  9539  9538    1
  8322  7495  7496    1
  8323  7495  7497    1
  8324  9319  9320    1
  8325  9319  9321    1
  8326 19753 19754    1
  8327 19753 19755    1
  8328 11869 11870    1
  8329 11869 11871    1
  8330 15733 15734    1
  8331 15733 15735    1
  8332 17524 17525    1
  8333 17524 17526    1
  8334  5455  5456    1
  8335  5455  5457    1
  8336 18691 18692    1
  8337 18691 18693    1
  8338 13909 13910    1
  8339 13909 13911    1
  8340 11833 11835    1
  8341 15700 15702    1
  8342 18670 18672    1
  8343 17503 17505    1
  8344 19735 19737    1
  8345  5419  5421    1
  8346  9286  9288    1
  8347 13873 13875    1
  8348  7459  7461    1
  8349  1270  1271    1
  8350 14353 14354    1
  8351  2461  2462    1
  8352  5899  5900    1
  8353 15979 15980    1
  8354  7939  7940    1
  8355 12313 12314    1
  8356  9565  9566    1
  8357  3403  3404    1
  8358 11852 11851    1
  8359 13892 13891    1
  8360  3248  3247    1
  8361  7478  7477    1
  8362  2195  2194    1
  8363  5438  5437    1
  8364 15716 15715    1
  8365  1004  1003    1
  8366  9302  9301    1
  8367 10736 10735    1
  8368 16892 16891    1
  8369 12320 12319    1
  8370 17789 17788    1
  8371  5906  5905    1
  8372  1277  1276    1
  8373  4322  4321    1
  8374 14360 14359    1
  8375  7946  7945    1
  8376 18956 18955    1
  8377   347   346    1
  8378  2468  2467    1
  8379 13989 13987    1
  8380   237   235    1
  8381  4125  4123    1
  8382  1062  1060    1
  8383  2253  2251    1
  8384 11949 11947    1
  8385  5535  5533    1
  8386  7575  7573    1
  8387 10539 10537    1
  8388 11746 11747    1
  8389 11746 11748    1
  8390 18622 18623    1
  8391 18622 18624    1
  8392 10408 10409    1
  8393 10408 10410    1
  8394 13786 13787    1
  8395 13786 13788    1
  8396  3994  3995    1
  8397  3994  3996    1
  8398  7372  7373    1
  8399  7372  7374    1
  8400 17455 17456    1
  8401 17455 17457    1
  8402  5332  5333    1
  8403  5332  5334    1
  8404 16705 16706    1
  8405 16705 16707    1
  8406 12055 12057    1
  8407  4168  4170    1
  8408 18805 18807    1
  8409 17638 17640    1
  8410 14095 14097    1
  8411  7681  7683    1
  8412 10582 10584    1
  8413 16804 16806    1
  8414  5641  5643    1
  8415  7823  7822    1
  8416  4238  4237    1
  8417  9518  9517    1
  8418   311   310    1
  8419  5783  5782    1
  8420  1220  1219    1
  8421 15932 15931    1
  8422 12197 12196    1
  8423 10652 10651    1
  8424  2411  2410    1
  8425  3380  3379    1
  8426 14237 14236    1
  8427 10695 10693    1
  8428 16860 16858    1
  8429 14289 14287    1
  8430 12249 12247    1
  8431  5835  5833    1
  8432  7875  7873    1
  8433 18912 18910    1
  8434 17745 17743    1
  8435  4281  4279    1
  8436 10735 10737    1
  8437  5905  5907    1
  8438  7945  7947    1
  8439   346   348    1
  8440 18955 18957    1
  8441  1276  1278    1
  8442 14359 14361    1
  8443  2467  2469    1
  8444 16891 16893    1
  8445 12319 12321    1
  8446 17788 17790    1
  8447  4321  4323    1
  8448 10498 10500    1
  8449 11905 11907    1
  8450  5491  5493    1
  8451 18715 18717    1
  8452 13945 13947    1
  8453 17548 17550    1
  8454  7531  7533    1
  8455  4084  4086    1
  8456 16759 16761    1
  8457  3972  3970    1
  8458 17439 17437    1
  8459 19692 19690    1
  8460  9216  9214    1
  8461 10386 10384    1
  8462  7338  7336    1
  8463  5298  5296    1
  8464 18606 18604    1
  8465 16698 16696    1
  8466 15630 15628    1
  8467 13752 13750    1
  8468 11712 11710    1
  8469  2412  2410    1
  8470  3381  3379    1
  8471 10653 10651    1
  8472 12198 12196    1
  8473  9519  9517    1
  8474 14238 14236    1
  8475  1221  1219    1
  8476  5784  5782    1
  8477   312   310    1
  8478 15933 15931    1
  8479  7824  7822    1
  8480  4239  4237    1
  8481  7885  7887    1
  8482  9538  9540    1
  8483  5845  5847    1
  8484 19885 19887    1
  8485 14299 14301    1
  8486 12259 12261    1
  8487 18922 18924    1
  8488 17755 17757    1
  8489 15952 15954    1
  8490  7873  7874    1
  8491 17743 17744    1
  8492 18910 18911    1
  8493 12247 12248    1
  8494 10693 10694    1
  8495  5833  5834    1
  8496 14287 14288    1
  8497 16858 16859    1
  8498  4279  4280    1
  8499   179   178    1
  8500 13853 13852    1
  8501  5399  5398    1
  8502   980   979    1
  8503  7439  7438    1
  8504  2171  2170    1
  8505 15683 15682    1
  8506  4037  4036    1
  8507  3227  3226    1
  8508 11813 11812    1
  8509  9269  9268    1
  8510 10451 10450    1
  8511  9303  9301    1
  8512  7479  7477    1
  8513 13893 13891    1
  8514  1005  1003    1
  8515  3249  3247    1
  8516  5439  5437    1
  8517  2196  2194    1
  8518 15717 15715    1
  8519 11853 11851    1
  8520 11947 11948    1
  8521  7573  7574    1
  8522 13987 13988    1
  8523 14351 14350    1
  8524  7937  7936    1
  8525  4123  4124    1
  8526  5897  5896    1
  8527 10730 10729    1
  8528  2251  2252    1
  8529 17786 17785    1
  8530  4316  4315    1
  8531  1060  1061    1
  8532 18953 18952    1
  8533   235   236    1
  8534 12311 12310    1
  8535 16889 16888    1
  8536 10537 10538    1
  8537  5533  5534    1
  8538 11732 11731    1
  8539  7358  7357    1
  8540 19700 19699    1
  8541  5318  5317    1
  8542 17447 17446    1
  8543  9230  9229    1
  8544 15644 15643    1
  8545 18614 18613    1
  8546 13772 13771    1
  8547 16697 16696    1
  8548 18605 18604    1
  8549  3971  3970    1
  8550  5297  5296    1
  8551  7337  7336    1
  8552 17438 17437    1
  8553 19691 19690    1
  8554 15629 15628    1
  8555  9215  9214    1
  8556 13751 13750    1
  8557 10385 10384    1
  8558 11711 11710    1
  8559  7936  7938    1
  8560  4315  4317    1
  8561 12310 12312    1
  8562 18952 18954    1
  8563 14350 14352    1
  8564  5896  5898    1
  8565 16888 16890    1
  8566 17785 17787    1
  8567 10729 10731    1
  8568   170   169    1
  8569   971   970    1
  8570 10433 10432    1
  8571  5372  5371    1
  8572  4019  4018    1
  8573 13826 13825    1
  8574  2162  2161    1
  8575 11786 11785    1
  8576  7412  7411    1
  8577 13773 13771    1
  8578 17448 17446    1
  8579  5319  5317    1
  8580  9231  9229    1
  8581 18615 18613    1
  8582 19701 19699    1
  8583  7359  7357    1
  8584 15645 15643    1
  8585 11733 11731    1
  8586 10591 10592    1
  8587 10591 10593    1
  8588  9418  9419    1
  8589  9418  9420    1
  8590  4177  4178    1
  8591  4177  4179    1
  8592 12067 12068    1
  8593 12067 12069    1
  8594  7693  7694    1
  8595  7693  7695    1
  8596 17647 17648    1
  8597 17647 17649    1
  8598 18814 18815    1
  8599 18814 18816    1
  8600 16810 16811    1
  8601 16810 16812    1
  8602 14107 14108    1
  8603 14107 14109    1
  8604  5653  5654    1
  8605  5653  5655    1
  8606 15832 15833    1
  8607 15832 15834    1
  8608 19813 19814    1
  8609 19813 19815    1
  8610 18881 18880    1
  8611 14240 14239    1
  8612 15935 15934    1
  8613 12200 12199    1
  8614  9521  9520    1
  8615  5786  5785    1
  8616  7826  7825    1
  8617 19871 19870    1
  8618 17714 17713    1
  8619  1076  1075    1
  8620  7595  7594    1
  8621  5555  5554    1
  8622 14009 14008    1
  8623  9347  9346    1
  8624 11969 11968    1
  8625 15761 15760    1
  8626  3275  3274    1
  8627  2267  2266    1
  8628  3226  3228    1
  8629   178   180    1
  8630   979   981    1
  8631  2170  2172    1
  8632 13852 13854    1
  8633 11812 11814    1
  8634 15682 15684    1
  8635 10450 10452    1
  8636  4036  4038    1
  8637  7438  7440    1
  8638  5398  5400    1
  8639  9268  9270    1
  8640  5579  5578    1
  8641 14033 14032    1
  8642 11993 11992    1
  8643 15785 15784    1
  8644 19781 19780    1
  8645  9371  9370    1
  8646  7619  7618    1
  8647 17600 17599    1
  8648 18767 18766    1
  8649 11968 11970    1
  8650 15760 15762    1
  8651  2266  2268    1
  8652  9346  9348    1
  8653  3274  3276    1
  8654  1075  1077    1
  8655 14008 14010    1
  8656  5554  5556    1
  8657  7594  7596    1
  8658  7827  7825    1
  8659 19872 19870    1
  8660 12201 12199    1
  8661 15936 15934    1
  8662 18882 18880    1
  8663  5787  5785    1
  8664  9522  9520    1
  8665 17715 17713    1
  8666 14241 14239    1
  8667 10740 10738    1
  8668 16896 16894    1
  8669  4326  4324    1
  8670 18960 18958    1
  8671 14364 14362    1
  8672  5910  5908    1
  8673 12324 12322    1
  8674  7950  7948    1
  8675 17793 17791    1
  8676 10434 10432    1
  8677 13827 13825    1
  8678   171   169    1
  8679  2163  2161    1
  8680   972   970    1
  8681  5373  5371    1
  8682  7413  7411    1
  8683  4020  4018    1
  8684 11787 11785    1
  8685 12230 12229    1
  8686  4262  4261    1
  8687 18902 18901    1
  8688 10676 10675    1
  8689 17735 17734    1
  8690  7856  7855    1
  8691 16850 16849    1
  8692  5816  5815    1
  8693 14270 14269    1
  8694  2238  2236    1
  8695 10521 10519    1
  8696 11928 11926    1
  8697 13968 13966    1
  8698  5514  5512    1
  8699  7554  7552    1
  8700   225   223    1
  8701  4107  4105    1
  8702  1047  1045    1
  8703  9500  9499    1
  8704 15914 15913    1
  8705  1211  1210    1
  8706  3371  3370    1
  8707  7805  7804    1
  8708 14219 14218    1
  8709  2402  2401    1
  8710  5765  5764    1
  8711 12179 12178    1
  8712 18958 18959    1
  8713 14362 14363    1
  8714 10738 10739    1
  8715 12322 12323    1
  8716  5908  5909    1
  8717 17791 17792    1
  8718  7948  7949    1
  8719  4324  4325    1
  8720 16894 16895    1
  8721  4058  4057    1
  8722  2204  2203    1
  8723  7505  7504    1
  8724 13919 13918    1
  8725  1013  1012    1
  8726 10472 10471    1
  8727  5465  5464    1
  8728 11879 11878    1
  8729   191   190    1
  8730  7345  7346    1
  8731  7345  7347    1
  8732 15637 15638    1
  8733 15637 15639    1
  8734 19696 19697    1
  8735 19696 19698    1
  8736 11719 11720    1
  8737 11719 11721    1
  8738 18610 18611    1
  8739 18610 18612    1
  8740  9223  9224    1
  8741  9223  9225    1
  8742  5305  5306    1
  8743  5305  5307    1
  8744 17443 17444    1
  8745 17443 17445    1
  8746 13759 13760    1
  8747 13759 13761    1
  8748 14218 14220    1
  8749  3370  3372    1
  8750  2401  2403    1
  8751  7804  7806    1
  8752 15913 15915    1
  8753  9499  9501    1
  8754 12178 12180    1
  8755  1210  1212    1
  8756  5764  5766    1
  8757  9370  9372    1
  8758 17599 17601    1
  8759  5578  5580    1
  8760 19780 19782    1
  8761 18766 18768    1
  8762 14032 14034    1
  8763  7618  7620    1
  8764 11992 11994    1
  8765 15784 15786    1
  8766   223   224    1
  8767  2236  2237    1
  8768 11926 11927    1
  8769  4105  4106    1
  8770  5512  5513    1
  8771  1045  1046    1
  8772  7552  7553    1
  8773 10519 10520    1
  8774 13966 13967    1
  8775 10471 10473    1
  8776  7504  7506    1
  8777 13918 13920    1
  8778  2203  2205    1
  8779  5464  5466    1
  8780  4057  4059    1
  8781 11878 11880    1
  8782  1012  1014    1
  8783   190   192    1
  8784 13964 13963    1
  8785  5510  5509    1
  8786   221   220    1
  8787 17558 17557    1
  8788 16769 16768    1
  8789  2234  2233    1
  8790 18725 18724    1
  8791  1043  1042    1
  8792 10517 10516    1
  8793  7550  7549    1
  8794 11924 11923    1
  8795  4103  4102    1
  8796 14348 14347    1
  8797 16886 16885    1
  8798 17783 17782    1
  8799 10727 10726    1
  8800  7934  7933    1
  8801 12308 12307    1
  8802  4313  4312    1
  8803  5894  5893    1
  8804 18950 18949    1
  8805 17734 17736    1
  8806  5815  5817    1
  8807 10675 10677    1
  8808 14269 14271    1
  8809  7855  7857    1
  8810 16849 16851    1
  8811  4261  4263    1
  8812 12229 12231    1
  8813 18901 18903    1
  8814  2337  2335    1
  8815  7707  7705    1
  8816  9429  9427    1
  8817  5667  5665    1
  8818 14121 14119    1
  8819  3327  3325    1
  8820  1146  1144    1
  8821 15843 15841    1
  8822 12081 12079    1
  8823 17454 17452    1
  8824   945   943    1
  8825  5328  5326    1
  8826  3990  3988    1
  8827 11742 11740    1
  8828 18621 18619    1
  8829 13782 13780    1
  8830  7368  7366    1
  8831  2136  2134    1
  8832 10404 10402    1
  8833 16704 16702    1
  8834   153   151    1
  8835 12078 12076    1
  8836  7704  7702    1
  8837 17652 17650    1
  8838 15840 15838    1
  8839  5664  5662    1
  8840 18819 18817    1
  8841 19818 19816    1
  8842 14118 14116    1
  8843  9426  9424    1
  8844  2335  2336    1
  8845  3325  3326    1
  8846 14119 14120    1
  8847  9427  9428    1
  8848  5665  5666    1
  8849 15841 15842    1
  8850 12079 12080    1
  8851  1144  1145    1
  8852  7705  7706    1
  8853  7395  7393    1
  8854  5355  5353    1
  8855  4011  4009    1
  8856 13809 13807    1
  8857 16713 16711    1
  8858 11769 11767    1
  8859 17466 17464    1
  8860 10425 10423    1
  8861 18633 18631    1
  8862  2227  2229    1
  8863  2227  2228    1
  8864  1036  1038    1
  8865  1036  1037    1
  8866  5500  5502    1
  8867  5500  5501    1
  8868 11914 11916    1
  8869 11914 11915    1
  8870   214   216    1
  8871   214   215    1
  8872  7540  7542    1
  8873  7540  7541    1
  8874  4093  4095    1
  8875  4093  4094    1
  8876 13954 13956    1
  8877 13954 13955    1
  8878 10507 10509    1
  8879 10507 10508    1
  8880 13856 13855    1
  8881 11816 11815    1
  8882  7442  7441    1
  8883  9272  9271    1
  8884  5402  5401    1
  8885 15686 15685    1
  8886  3230  3229    1
  8887   983   982    1
  8888  2174  2173    1
  8889  3984  3982    1
  8890  2127  2125    1
  8891   936   934    1
  8892 13770 13768    1
  8893  5316  5314    1
  8894  7356  7354    1
  8895 10398 10396    1
  8896   147   145    1
  8897 11730 11728    1
  8898  5544  5542    1
  8899 17574 17572    1
  8900 15756 15754    1
  8901 13998 13996    1
  8902  7584  7582    1
  8903  9342  9340    1
  8904 19761 19759    1
  8905 11958 11956    1
  8906 18741 18739    1
  8907 19816 19817    1
  8908 15838 15839    1
  8909 12076 12077    1
  8910  5662  5663    1
  8911 18817 18818    1
  8912  9424  9425    1
  8913 14116 14117    1
  8914 17650 17651    1
  8915  7702  7703    1
  8916 18609 18607    1
  8917 10389 10387    1
  8918  5301  5299    1
  8919 11715 11713    1
  8920 15633 15631    1
  8921  9219  9217    1
  8922 16701 16699    1
  8923  3975  3973    1
  8924 13755 13753    1
  8925   138   136    1
  8926 19695 19693    1
  8927   924   922    1
  8928  3204  3202    1
  8929  2115  2113    1
  8930  7341  7339    1
  8931 17442 17440    1
  8932 19703 19702    1
  8933 17450 17449    1
  8934 13775 13774    1
  8935   938   937    1
  8936 11735 11734    1
  8937  5321  5320    1
  8938 18617 18616    1
  8939  7361  7360    1
  8940  2129  2128    1
  8941 15647 15646    1
  8942  9233  9232    1
  8943  3212  3211    1
  8944 10416 10414    1
  8945 11754 11752    1
  8946 13794 13792    1
  8947  2145  2143    1
  8948  5340  5338    1
  8949  7380  7378    1
  8950   162   160    1
  8951   954   952    1
  8952  4002  4000    1
  8953 16768 16770    1
  8954  2233  2235    1
  8955  5509  5511    1
  8956  1042  1044    1
  8957 17557 17559    1
  8958 18724 18726    1
  8959 11923 11925    1
  8960 10516 10518    1
  8961 13963 13965    1
  8962  7549  7551    1
  8963   220   222    1
  8964  4102  4104    1
  8965 17782 17784    1
  8966 16885 16887    1
  8967  7933  7935    1
  8968 10726 10728    1
  8969 18949 18951    1
  8970  4312  4314    1
  8971 14347 14349    1
  8972  5893  5895    1
  8973 12307 12309    1
  8974 15974 15973    1
  8975  2453  2452    1
  8976 12299 12298    1
  8977 14339 14338    1
  8978  7925  7924    1
  8979  9560  9559    1
  8980  3398  3397    1
  8981  5885  5884    1
  8982  1262  1261    1
  8983 13807 13808    1
  8984  5353  5354    1
  8985  4009  4010    1
  8986 17464 17465    1
  8987 16711 16712    1
  8988 10423 10424    1
  8989 18631 18632    1
  8990  7393  7394    1
  8991 11767 11768    1
  8992  9341  9340    1
  8993 17573 17572    1
  8994 19760 19759    1
  8995  5543  5542    1
  8996  7583  7582    1
  8997 13997 13996    1
  8998 18740 18739    1
  8999 15755 15754    1
  9000 11957 11956    1
  9001  9217  9218    1
  9002   922   923    1
  9003 16699 16700    1
  9004  3202  3203    1
  9005 17440 17441    1
  9006 19693 19694    1
  9007 18607 18608    1
  9008 11713 11714    1
  9009 10387 10388    1
  9010  2113  2114    1
  9011   136   137    1
  9012  5299  5300    1
  9013 15631 15632    1
  9014 13753 13754    1
  9015  7339  7340    1
  9016  3973  3974    1
  9017  5320  5322    1
  9018 11734 11736    1
  9019  2128  2130    1
  9020  3211  3213    1
  9021 17449 17451    1
  9022 18616 18618    1
  9023 13774 13776    1
  9024  9232  9234    1
  9025   937   939    1
  9026 15646 15648    1
  9027 19702 19704    1
  9028  7360  7362    1
  9029  4000  4001    1
  9030  7378  7379    1
  9031   952   953    1
  9032 13792 13793    1
  9033 11752 11753    1
  9034   160   161    1
  9035  5338  5339    1
  9036  2143  2144    1
  9037 10414 10415    1
  9038 13829 13828    1
  9039  5375  5374    1
  9040  7415  7414    1
  9041 11789 11788    1
  9042 19712 19711    1
  9043 17474 17473    1
  9044 15665 15664    1
  9045 18641 18640    1
  9046  9251  9250    1
  9047  5327  5326    1
  9048 13781 13780    1
  9049 16703 16702    1
  9050 10403 10402    1
  9051   944   943    1
  9052  3989  3988    1
  9053  2135  2134    1
  9054 17453 17452    1
  9055 11741 11740    1
  9056 18620 18619    1
  9057   152   151    1
  9058  7367  7366    1
  9059  2175  2173    1
  9060  9273  9271    1
  9061 15687 15685    1
  9062  3231  3229    1
  9063  7443  7441    1
  9064 11817 11815    1
  9065 13857 13855    1
  9066   984   982    1
  9067  5403  5401    1
  9068  5831  5830    1
  9069   329   328    1
  9070  2429  2428    1
  9071 14285 14284    1
  9072  1238  1237    1
  9073 12245 12244    1
  9074  4277  4276    1
  9075  7871  7870    1
  9076 10691 10690    1
  9077 11895 11893    1
  9078   201   199    1
  9079  1023  1021    1
  9080  5481  5479    1
  9081 10488 10486    1
  9082  4074  4072    1
  9083  7521  7519    1
  9084 13935 13933    1
  9085  2214  2212    1
  9086 18637 18638    1
  9087 18637 18639    1
  9088  7408  7409    1
  9089  7408  7410    1
  9090  4015  4016    1
  9091  4015  4017    1
  9092 13822 13823    1
  9093 13822 13824    1
  9094 16714 16715    1
  9095 16714 16716    1
  9096 17470 17471    1
  9097 17470 17472    1
  9098 10429 10430    1
  9099 10429 10431    1
  9100  5368  5369    1
  9101  5368  5370    1
  9102 11782 11783    1
  9103 11782 11784    1
  9104 19895 19894    1
  9105  9563  9562    1
  9106  3401  3400    1
  9107 12302 12301    1
  9108  1265  1264    1
  9109 15977 15976    1
  9110  5888  5887    1
  9111 18944 18943    1
  9112 14342 14341    1
  9113 17777 17776    1
  9114  2456  2455    1
  9115  7928  7927    1
  9116  5884  5886    1
  9117  2452  2454    1
  9118  9559  9561    1
  9119  7924  7926    1
  9120 14338 14340    1
  9121  1261  1263    1
  9122 15973 15975    1
  9123  3397  3399    1
  9124 12298 12300    1
  9125  5435  5434    1
  9126  1001  1000    1
  9127  2192  2191    1
  9128  9299  9298    1
  9129 11849 11848    1
  9130 15713 15712    1
  9131  7475  7474    1
  9132 13889 13888    1
  9133  3245  3244    1
  9134 10396 10397    1
  9135  7354  7355    1
  9136  5314  5315    1
  9137  3982  3983    1
  9138 11728 11729    1
  9139   934   935    1
  9140 13768 13769    1
  9141  2125  2126    1
  9142   145   146    1
  9143  1237  1239    1
  9144 10690 10692    1
  9145 14284 14286    1
  9146  4276  4278    1
  9147  2428  2430    1
  9148   328   330    1
  9149 12244 12246    1
  9150  7870  7872    1
  9151  5830  5832    1
  9152  1022  1021    1
  9153  2213  2212    1
  9154 11894 11893    1
  9155  5480  5479    1
  9156 13934 13933    1
  9157 10487 10486    1
  9158  4073  4072    1
  9159   200   199    1
  9160  7520  7519    1
  9161  9252  9250    1
  9162 15666 15664    1
  9163 19713 19711    1
  9164  5376  5374    1
  9165 11790 11788    1
  9166 17475 17473    1
  9167 18642 18640    1
  9168 13830 13828    1
  9169  7416  7414    1
  9170  5310  5308    1
  9171  7350  7348    1
  9172  9228  9226    1
  9173 11724 11722    1
  9174 13764 13762    1
  9175  3210  3208    1
  9176 15642 15640    1
  9177  2121  2119    1
  9178   930   928    1
  9179   139   140    1
  9180   139   141    1
  9181  3205  3206    1
  9182  3205  3207    1
  9183  9220  9221    1
  9184  9220  9222    1
  9185 15634 15635    1
  9186 15634 15636    1
  9187 10390 10391    1
  9188 10390 10392    1
  9189 11716 11717    1
  9190 11716 11718    1
  9191  7342  7343    1
  9192  7342  7344    1
  9193  3976  3977    1
  9194  3976  3978    1
  9195  5302  5303    1
  9196  5302  5304    1
  9197  2116  2117    1
  9198  2116  2118    1
  9199 13756 13757    1
  9200 13756 13758    1
  9201   925   926    1
  9202   925   927    1
  9203 18730 18732    1
  9204 18730 18731    1
  9205  7558  7560    1
  9206  7558  7559    1
  9207 17563 17565    1
  9208 17563 17564    1
  9209 16774 16776    1
  9210 16774 16775    1
  9211 13972 13974    1
  9212 13972 13973    1
  9213  4111  4113    1
  9214  4111  4112    1
  9215 11932 11934    1
  9216 11932 11933    1
  9217  5518  5520    1
  9218  5518  5519    1
  9219 10525 10527    1
  9220 10525 10526    1
  9221  5309  5308    1
  9222  9227  9226    1
  9223   929   928    1
  9224 15641 15640    1
  9225 13763 13762    1
  9226 11723 11722    1
  9227  3209  3208    1
  9228  7349  7348    1
  9229  2120  2119    1
  9230 19892 19891    1
  9231 12293 12292    1
  9232 17774 17773    1
  9233  9554  9553    1
  9234  7919  7918    1
  9235 18941 18940    1
  9236 15968 15967    1
  9237  5879  5878    1
  9238 14333 14332    1
  9239 11749 11751    1
  9240 11749 11750    1
  9241  3997  3999    1
  9242  3997  3998    1
  9243   157   159    1
  9244   157   158    1
  9245   949   951    1
  9246   949   950    1
  9247  7375  7377    1
  9248  7375  7376    1
  9249 13789 13791    1
  9250 13789 13790    1
  9251  2140  2142    1
  9252  2140  2141    1
  9253  5335  5337    1
  9254  5335  5336    1
  9255 10411 10413    1
  9256 10411 10412    1
  9257 13859 13858    1
  9258 10454 10453    1
  9259  2177  2176    1
  9260   182   181    1
  9261   986   985    1
  9262  4040  4039    1
  9263  5405  5404    1
  9264 11819 11818    1
  9265  7445  7444    1
  9266 16767 16765    1
  9267 10515 10513    1
  9268  5508  5506    1
  9269 17556 17554    1
  9270 13962 13960    1
  9271 18723 18721    1
  9272  4101  4099    1
  9273 11922 11920    1
  9274  7548  7546    1
  9275 12294 12292    1
  9276 14334 14332    1
  9277 15969 15967    1
  9278 18942 18940    1
  9279  5880  5878    1
  9280  7920  7918    1
  9281 19893 19891    1
  9282  9555  9553    1
  9283 17775 17773    1
  9284  2455  2457    1
  9285  7927  7929    1
  9286 18943 18945    1
  9287 17776 17778    1
  9288  3400  3402    1
  9289  5887  5889    1
  9290 19894 19896    1
  9291 14341 14343    1
  9292  9562  9564    1
  9293  1264  1266    1
  9294 15976 15978    1
  9295 12301 12303    1
  9296  1218  1216    1
  9297  7812  7810    1
  9298 15921 15919    1
  9299  3378  3376    1
  9300  9507  9505    1
  9301 12186 12184    1
  9302  5772  5770    1
  9303  2409  2407    1
  9304 14226 14224    1
  9305 18647 18646    1
  9306  5381  5380    1
  9307 15671 15670    1
  9308 19718 19717    1
  9309  9257  9256    1
  9310 13835 13834    1
  9311  7421  7420    1
  9312 17480 17479    1
  9313 11795 11794    1
  9314 19710 19708    1
  9315  5367  5365    1
  9316  9249  9247    1
  9317  7407  7405    1
  9318 15663 15661    1
  9319 18636 18634    1
  9320 11781 11779    1
  9321 13821 13819    1
  9322 17469 17467    1
  9323  7474  7476    1
  9324  3244  3246    1
  9325  5434  5436    1
  9326  1000  1002    1
  9327 15712 15714    1
  9328 11848 11850    1
  9329 13888 13890    1
  9330  2191  2193    1
  9331  9298  9300    1
  9332 13960 13961    1
  9333 18721 18722    1
  9334 10513 10514    1
  9335  7546  7547    1
  9336  4099  4100    1
  9337 11920 11921    1
  9338  5506  5507    1
  9339 16765 16766    1
  9340 17554 17555    1
  9341  5770  5771    1
  9342  9505  9506    1
  9343  3376  3377    1
  9344  7810  7811    1
  9345  1216  1217    1
  9346 14224 14225    1
  9347 15919 15920    1
  9348 12184 12185    1
  9349  2407  2408    1
  9350 19794 19792    1
  9351 12012 12010    1
  9352 17613 17611    1
  9353 15801 15799    1
  9354  5598  5596    1
  9355 18780 18778    1
  9356  9387  9385    1
  9357  7638  7636    1
  9358 14052 14050    1
  9359 18736 18738    1
  9360 18736 18737    1
  9361  7570  7572    1
  9362  7570  7571    1
  9363  2248  2250    1
  9364  2248  2249    1
  9365  5530  5532    1
  9366  5530  5531    1
  9367  4120  4122    1
  9368  4120  4121    1
  9369   232   234    1
  9370   232   233    1
  9371  3262  3264    1
  9372  3262  3263    1
  9373 17569 17571    1
  9374 17569 17570    1
  9375 11944 11946    1
  9376 11944 11945    1
  9377 16780 16782    1
  9378 16780 16781    1
  9379 13984 13986    1
  9380 13984 13985    1
  9381 10534 10536    1
  9382 10534 10535    1
  9383 15745 15747    1
  9384 15745 15746    1
  9385  1057  1059    1
  9386  1057  1058    1
  9387  9331  9333    1
  9388  9331  9332    1
  9389 19756 19758    1
  9390 19756 19757    1
  9391 15654 15652    1
  9392  2151  2149    1
  9393  9240  9238    1
  9394 11766 11764    1
  9395  7392  7390    1
  9396  5352  5350    1
  9397   960   958    1
  9398  3216  3214    1
  9399 13806 13804    1
  9400 10725 10723    1
  9401  2460  2458    1
  9402 18948 18946    1
  9403 14346 14344    1
  9404  7932  7930    1
  9405 17781 17779    1
  9406  5892  5890    1
  9407  4311  4309    1
  9408 12306 12304    1
  9409 16884 16882    1
  9410   342   340    1
  9411  1269  1267    1
  9412 12010 12011    1
  9413 17611 17612    1
  9414 15799 15800    1
  9415 18778 18779    1
  9416  5596  5597    1
  9417  9385  9386    1
  9418  7636  7637    1
  9419 14050 14051    1
  9420 19792 19793    1
  9421 10723 10724    1
  9422  1267  1268    1
  9423 16882 16883    1
  9424 12304 12305    1
  9425 18946 18947    1
  9426  5890  5891    1
  9427 14344 14345    1
  9428  4309  4310    1
  9429 17779 17780    1
  9430  2458  2459    1
  9431  7930  7931    1
  9432   340   341    1
  9433 11804 11803    1
  9434  9263  9262    1
  9435 18656 18655    1
  9436  5390  5389    1
  9437 13844 13843    1
  9438 19724 19723    1
  9439 17489 17488    1
  9440 10442 10441    1
  9441 15677 15676    1
  9442  7430  7429    1
  9443  4028  4027    1
  9444 16724 16723    1
  9445 19725 19723    1
  9446 17490 17488    1
  9447  4029  4027    1
  9448 13845 13843    1
  9449 16725 16723    1
  9450  7431  7429    1
  9451  5391  5389    1
  9452 10443 10441    1
  9453 15678 15676    1
  9454 11805 11803    1
  9455 18657 18655    1
  9456  9264  9262    1
  9457 13858 13860    1
  9458   181   183    1
  9459 10453 10455    1
  9460  7444  7446    1
  9461  5404  5406    1
  9462   985   987    1
  9463  2176  2178    1
  9464 11818 11820    1
  9465  4039  4041    1
  9466  7397  7396    1
  9467   167   166    1
  9468   962   961    1
  9469 10427 10426    1
  9470  5357  5356    1
  9471 11771 11770    1
  9472  4013  4012    1
  9473  2153  2152    1
  9474 13811 13810    1
  9475  9248  9247    1
  9476 18635 18634    1
  9477  5366  5365    1
  9478 19709 19708    1
  9479  7406  7405    1
  9480 15662 15661    1
  9481 17468 17467    1
  9482 11780 11779    1
  9483 13820 13819    1
  9484 13834 13836    1
  9485  5380  5382    1
  9486  7420  7422    1
  9487 19717 19719    1
  9488  9256  9258    1
  9489 11794 11796    1
  9490 18646 18648    1
  9491 15670 15672    1
  9492 17479 17481    1
  9493  2152  2154    1
  9494 11770 11772    1
  9495 13810 13812    1
  9496  4012  4014    1
  9497   166   168    1
  9498   961   963    1
  9499  7396  7398    1
  9500  5356  5358    1
  9501 10426 10428    1
  9502  7895  7894    1
  9503  5855  5854    1
  9504 15959 15958    1
  9505  1247  1246    1
  9506  3389  3388    1
  9507 14309 14308    1
  9508  2438  2437    1
  9509  9545  9544    1
  9510 12269 12268    1
  9511   315   313    1
  9512 10662 10660    1
  9513  7842  7840    1
  9514  1224  1222    1
  9515 15948 15946    1
  9516  9534  9532    1
  9517 14256 14254    1
  9518 12216 12214    1
  9519  5802  5800    1
  9520  4248  4246    1
  9521  2415  2413    1
  9522  3384  3382    1
  9523  7363  7364    1
  9524  7363  7365    1
  9525  5323  5324    1
  9526  5323  5325    1
  9527 13777 13778    1
  9528 13777 13779    1
  9529  2131  2132    1
  9530  2131  2133    1
  9531 10399 10400    1
  9532 10399 10401    1
  9533  3985  3986    1
  9534  3985  3987    1
  9535   148   149    1
  9536   148   150    1
  9537 11737 11738    1
  9538 11737 11739    1
  9539   940   941    1
  9540   940   942    1
  9541 16854 16852    1
  9542 10680 10678    1
  9543 17739 17737    1
  9544  4266  4264    1
  9545  7860  7858    1
  9546 14274 14272    1
  9547  5820  5818    1
  9548 12234 12232    1
  9549 18906 18904    1
  9550   313   314    1
  9551  9532  9533    1
  9552  2413  2414    1
  9553 12214 12215    1
  9554  1222  1223    1
  9555  3382  3383    1
  9556  7840  7841    1
  9557 15946 15947    1
  9558 10660 10661    1
  9559 14254 14255    1
  9560  4246  4247    1
  9561  5800  5801    1
  9562  2149  2150    1
  9563  7390  7391    1
  9564  5350  5351    1
  9565 13804 13805    1
  9566 11764 11765    1
  9567  9238  9239    1
  9568  3214  3215    1
  9569 15652 15653    1
  9570   958   959    1
  9571 15798 15796    1
  9572  3300  3298    1
  9573  2292  2290    1
  9574 17610 17608    1
  9575 19791 19789    1
  9576 12006 12004    1
  9577  5592  5590    1
  9578 14046 14044    1
  9579 18777 18775    1
  9580  1101  1099    1
  9581  7632  7630    1
  9582  9384  9382    1
  9583  5818  5819    1
  9584  4264  4265    1
  9585 18904 18905    1
  9586 12232 12233    1
  9587  7858  7859    1
  9588 17737 17738    1
  9589 14272 14273    1
  9590 16852 16853    1
  9591 10678 10679    1
  9592 16823 16822    1
  9593  4211  4210    1
  9594  1181  1180    1
  9595  2372  2371    1
  9596 10625 10624    1
  9597 14177 14176    1
  9598  7763  7762    1
  9599 12137 12136    1
  9600 18848 18847    1
  9601  5723  5722    1
  9602   296   295    1
  9603 17681 17680    1
  9604 10718 10717    1
  9605 12287 12286    1
  9606 18935 18934    1
  9607  5873  5872    1
  9608 17768 17767    1
  9609  4304  4303    1
  9610 16877 16876    1
  9611 14327 14326    1
  9612  7913  7912    1
  9613 14337 14335    1
  9614  9558  9556    1
  9615  2451  2449    1
  9616 15972 15970    1
  9617  5883  5881    1
  9618 12297 12295    1
  9619  3396  3394    1
  9620  1260  1258    1
  9621  7923  7921    1
  9622 18934 18936    1
  9623  5872  5874    1
  9624 16876 16878    1
  9625  4303  4305    1
  9626 14326 14328    1
  9627 17767 17769    1
  9628  7912  7914    1
  9629 12286 12288    1
  9630 10717 10719    1
  9631  7630  7631    1
  9632  3298  3299    1
  9633 15796 15797    1
  9634  1099  1100    1
  9635  5590  5591    1
  9636  9382  9383    1
  9637 18775 18776    1
  9638  2290  2291    1
  9639 19789 19790    1
  9640 14044 14045    1
  9641 12004 12005    1
  9642 17608 17609    1
  9643 10449 10447    1
  9644 11811 11809    1
  9645 18663 18661    1
  9646  4035  4033    1
  9647  5397  5395    1
  9648 13851 13849    1
  9649  7437  7435    1
  9650 17496 17494    1
  9651 16731 16729    1
  9652  4284  4282    1
  9653 16863 16861    1
  9654 17748 17746    1
  9655  7878  7876    1
  9656  5838  5836    1
  9657 12252 12250    1
  9658 18915 18913    1
  9659 10698 10696    1
  9660 14292 14290    1
  9661  7502  7501    1
  9662  2201  2200    1
  9663  9323  9322    1
  9664  1010  1009    1
  9665  5462  5461    1
  9666  3254  3253    1
  9667 11876 11875    1
  9668 15737 15736    1
  9669 13916 13915    1
  9670  5854  5856    1
  9671  7894  7896    1
  9672  2437  2439    1
  9673 14308 14310    1
  9674 15958 15960    1
  9675  3388  3390    1
  9676  1246  1248    1
  9677  9544  9546    1
  9678 12268 12270    1
  9679  7382  7381    1
  9680  5342  5341    1
  9681 11756 11755    1
  9682 17459 17458    1
  9683 16709 16708    1
  9684 10418 10417    1
  9685 18626 18625    1
  9686 13796 13795    1
  9687  4004  4003    1
  9688 18932 18931    1
  9689  7904  7903    1
  9690 14318 14317    1
  9691 15962 15961    1
  9692 19889 19888    1
  9693 17765 17764    1
  9694 12278 12277    1
  9695  9548  9547    1
  9696  5864  5863    1
  9697 10447 10448    1
  9698  7435  7436    1
  9699 13849 13850    1
  9700  5395  5396    1
  9701 16729 16730    1
  9702 11809 11810    1
  9703 18661 18662    1
  9704 17494 17495    1
  9705  4033  4034    1
  9706  7830  7828    1
  9707 14244 14242    1
  9708 19875 19873    1
  9709 15939 15937    1
  9710  5790  5788    1
  9711  9525  9523    1
  9712 12204 12202    1
  9713 17718 17716    1
  9714 18885 18883    1
  9715  7888  7890    1
  9716  7888  7889    1
  9717 10705 10707    1
  9718 10705 10706    1
  9719 12262 12264    1
  9720 12262 12263    1
  9721  2431  2433    1
  9722  2431  2432    1
  9723   331   333    1
  9724   331   332    1
  9725 14302 14304    1
  9726 14302 14303    1
  9727  4291  4293    1
  9728  4291  4292    1
  9729  5848  5850    1
  9730  5848  5849    1
  9731  1240  1242    1
  9732  1240  1241    1
  9733 17690 17689    1
  9734  7772  7771    1
  9735 10631 10630    1
  9736 19853 19852    1
  9737 14186 14185    1
  9738 15899 15898    1
  9739 16829 16828    1
  9740  5732  5731    1
  9741  4217  4216    1
  9742 12146 12145    1
  9743 18857 18856    1
  9744  9485  9484    1
  9745 10421 10420    1
  9746 11759 11758    1
  9747   956   955    1
  9748   164   163    1
  9749  7385  7384    1
  9750 13799 13798    1
  9751  2147  2146    1
  9752  5345  5344    1
  9753  4007  4006    1
  9754  1180  1182    1
  9755   295   297    1
  9756  4210  4212    1
  9757 17680 17682    1
  9758 16822 16824    1
  9759 18847 18849    1
  9760  5722  5724    1
  9761  2371  2373    1
  9762 14176 14178    1
  9763  7762  7764    1
  9764 10624 10626    1
  9765 12136 12138    1
  9766 12040 12041    1
  9767 12040 12042    1
  9768  4156  4157    1
  9769  4156  4158    1
  9770  5626  5627    1
  9771  5626  5628    1
  9772 10570 10571    1
  9773 10570 10572    1
  9774 14080 14081    1
  9775 14080 14082    1
  9776 18793 18794    1
  9777 18793 18795    1
  9778 16795 16796    1
  9779 16795 16797    1
  9780  7666  7667    1
  9781  7666  7668    1
  9782 17626 17627    1
  9783 17626 17628    1
  9784  9557  9556    1
  9785  2450  2449    1
  9786 12296 12295    1
  9787 14336 14335    1
  9788  7922  7921    1
  9789  1259  1258    1
  9790  5882  5881    1
  9791  3395  3394    1
  9792 15971 15970    1
  9793 11755 11757    1
  9794  5341  5343    1
  9795 18625 18627    1
  9796  4003  4005    1
  9797 16708 16710    1
  9798  7381  7383    1
  9799 17458 17460    1
  9800 10417 10419    1
  9801 13795 13797    1
  9802 17635 17637    1
  9803 17635 17636    1
  9804 18802 18804    1
  9805 18802 18803    1
  9806   265   267    1
  9807   265   266    1
  9808 12052 12054    1
  9809 12052 12053    1
  9810 14092 14094    1
  9811 14092 14093    1
  9812  5638  5640    1
  9813  5638  5639    1
  9814  1129  1131    1
  9815  1129  1130    1
  9816  7678  7680    1
  9817  7678  7679    1
  9818  4165  4167    1
  9819  4165  4166    1
  9820  2320  2322    1
  9821  2320  2321    1
  9822 16801 16803    1
  9823 16801 16802    1
  9824 10579 10581    1
  9825 10579 10580    1
  9826  9275  9274    1
  9827 15689 15688    1
  9828 19730 19729    1
  9829  7448  7447    1
  9830  5408  5407    1
  9831 18665 18664    1
  9832 11822 11821    1
  9833 13862 13861    1
  9834 17498 17497    1
  9835 18852 18850    1
  9836 15894 15892    1
  9837 14181 14179    1
  9838 17685 17683    1
  9839  7767  7765    1
  9840  2376  2374    1
  9841 19848 19846    1
  9842  9480  9478    1
  9843  1185  1183    1
  9844  5727  5725    1
  9845 12141 12139    1
  9846  3357  3355    1
  9847  5788  5789    1
  9848 15937 15938    1
  9849 12202 12203    1
  9850  7828  7829    1
  9851 19873 19874    1
  9852 14242 14243    1
  9853  9523  9524    1
  9854 17716 17717    1
  9855 18883 18884    1
  9856 10721 10720    1
  9857 17771 17770    1
  9858 16880 16879    1
  9859 18938 18937    1
  9860  4307  4306    1
  9861 14330 14329    1
  9862  7916  7915    1
  9863 12290 12289    1
  9864  5876  5875    1
  9865  3356  3355    1
  9866  5726  5725    1
  9867  2375  2374    1
  9868  7766  7765    1
  9869 12140 12139    1
  9870 17684 17683    1
  9871 19847 19846    1
  9872 15893 15892    1
  9873  1184  1183    1
  9874 18851 18850    1
  9875  9479  9478    1
  9876 14180 14179    1
  9877   238   240    1
  9878   238   239    1
  9879  5536  5538    1
  9880  5536  5537    1
  9881  1063  1065    1
  9882  1063  1064    1
  9883  9334  9336    1
  9884  9334  9335    1
  9885  7576  7578    1
  9886  7576  7577    1
  9887 13990 13992    1
  9888 13990 13991    1
  9889  3265  3267    1
  9890  3265  3266    1
  9891 10540 10542    1
  9892 10540 10541    1
  9893 15748 15750    1
  9894 15748 15749    1
  9895  4126  4128    1
  9896  4126  4127    1
  9897  2254  2256    1
  9898  2254  2255    1
  9899 11950 11952    1
  9900 11950 11951    1
  9901  7447  7449    1
  9902 17497 17499    1
  9903 15688 15690    1
  9904  5407  5409    1
  9905 13861 13863    1
  9906 11821 11823    1
  9907 18664 18666    1
  9908  9274  9276    1
  9909 19729 19731    1
  9910 15736 15738    1
  9911 11875 11877    1
  9912  3253  3255    1
  9913  9322  9324    1
  9914  5461  5463    1
  9915  7501  7503    1
  9916  2200  2202    1
  9917 13915 13917    1
  9918  1009  1011    1
  9919 15961 15963    1
  9920 14317 14319    1
  9921 19888 19890    1
  9922  7903  7905    1
  9923  9547  9549    1
  9924 17764 17766    1
  9925 18931 18933    1
  9926  5863  5865    1
  9927 12277 12279    1
  9928  3218  3217    1
  9929   965   964    1
  9930 11774 11773    1
  9931  7400  7399    1
  9932 13814 13813    1
  9933  5360  5359    1
  9934 15656 15655    1
  9935  2156  2155    1
  9936  9242  9241    1
  9937 12250 12251    1
  9938  5836  5837    1
  9939  4282  4283    1
  9940 14290 14291    1
  9941 17746 17747    1
  9942  7876  7877    1
  9943 16861 16862    1
  9944 18913 18914    1
  9945 10696 10697    1
  9946 16828 16830    1
  9947 18856 18858    1
  9948  5731  5733    1
  9949  9484  9486    1
  9950 12145 12147    1
  9951 19852 19854    1
  9952 10630 10632    1
  9953 14185 14187    1
  9954  7771  7773    1
  9955  4216  4218    1
  9956 17689 17691    1
  9957 15898 15900    1
  9958 18939 18937    1
  9959  5877  5875    1
  9960 14331 14329    1
  9961 12291 12289    1
  9962  7917  7915    1
  9963  4308  4306    1
  9964 16881 16879    1
  9965 10722 10720    1
  9966 17772 17770    1
  9967 15657 15655    1
  9968   966   964    1
  9969  3219  3217    1
  9970  2157  2155    1
  9971 11775 11773    1
  9972  5361  5359    1
  9973 13815 13813    1
  9974  7401  7399    1
  9975  9243  9241    1
  9976 14325 14323    1
  9977  1257  1255    1
  9978  3393  3391    1
  9979 12285 12283    1
  9980  5871  5869    1
  9981  7911  7909    1
  9982 15966 15964    1
  9983  9552  9550    1
  9984  2448  2446    1
  9985  4008  4006    1
  9986   957   955    1
  9987 10422 10420    1
  9988  5346  5344    1
  9989 13800 13798    1
  9990  2148  2146    1
  9991   165   163    1
  9992 11760 11758    1
  9993  7386  7384    1
  9994  4176  4174    1
  9995 14106 14104    1
  9996 12066 12064    1
  9997  5652  5650    1
  9998  7692  7690    1
  9999 10590 10588    1
 10000 18813 18811    1
 10001 16809 16807    1
 10002 17646 17644    1
 10003 16743 16741    1
 10004 17532 17530    1
 10005  7509  7507    1
 10006 18699 18697    1
 10007  4062  4060    1
 10008 10476 10474    1
 10009 13923 13921    1
 10010 11883 11881    1
 10011  2208  2206    1
 10012  5469  5467    1
 10013   195   193    1
 10014  1017  1015    1
 10015  5739  5737    1
 10016  9489  9487    1
 10017  2382  2380    1
 10018  7779  7777    1
 10019  1191  1189    1
 10020 15903 15901    1
 10021 14193 14191    1
 10022 12153 12151    1
 10023  3360  3358    1
 10024 14028 14026    1
 10025 15780 15778    1
 10026  7614  7612    1
 10027 19776 19774    1
 10028 11988 11986    1
 10029  9366  9364    1
 10030  5574  5572    1
 10031 18762 18760    1
 10032 17595 17593    1
 10033  7844  7843    1
 10034 14258 14257    1
 10035  5804  5803    1
 10036 18896 18895    1
 10037 12218 12217    1
 10038 17729 17728    1
 10039  9536  9535    1
 10040 19883 19882    1
 10041  4250  4249    1
 10042 15950 15949    1
 10043 16844 16843    1
 10044 10664 10663    1
 10045 10588 10589    1
 10046 12064 12065    1
 10047  7690  7691    1
 10048 14104 14105    1
 10049  4174  4175    1
 10050 16807 16808    1
 10051 18811 18812    1
 10052  5650  5651    1
 10053 17644 17645    1
 10054  2206  2207    1
 10055 17530 17531    1
 10056  1015  1016    1
 10057  5467  5468    1
 10058 11881 11882    1
 10059  7507  7508    1
 10060 16741 16742    1
 10061  4060  4061    1
 10062 10474 10475    1
 10063   193   194    1
 10064 13921 13922    1
 10065 18697 18698    1
 10066 15964 15965    1
 10067 14323 14324    1
 10068  1255  1256    1
 10069  2446  2447    1
 10070  5869  5870    1
 10071  9550  9551    1
 10072 12283 12284    1
 10073  7909  7910    1
 10074  3391  3392    1
 10075  9307  9309    1
 10076  9307  9308    1
 10077 15721 15723    1
 10078 15721 15722    1
 10079 18682 18684    1
 10080 18682 18683    1
 10081  7483  7485    1
 10082  7483  7484    1
 10083 19744 19746    1
 10084 19744 19745    1
 10085  5443  5445    1
 10086  5443  5444    1
 10087 13897 13899    1
 10088 13897 13898    1
 10089 17515 17517    1
 10090 17515 17516    1
 10091 11857 11859    1
 10092 11857 11858    1
 10093  5472  5470    1
 10094  7512  7510    1
 10095 11886 11884    1
 10096 10479 10477    1
 10097  4065  4063    1
 10098 18702 18700    1
 10099 16746 16744    1
 10100 17535 17533    1
 10101 13926 13924    1
 10102 12152 12151    1
 10103  7778  7777    1
 10104  1190  1189    1
 10105  3359  3358    1
 10106 15902 15901    1
 10107  9488  9487    1
 10108 14192 14191    1
 10109  2381  2380    1
 10110  5738  5737    1
 10111  5602  5604    1
 10112  5602  5603    1
 10113  7642  7644    1
 10114  7642  7643    1
 10115 17617 17619    1
 10116 17617 17618    1
 10117 19798 19800    1
 10118 19798 19799    1
 10119 14056 14058    1
 10120 14056 14057    1
 10121 12016 12018    1
 10122 12016 12017    1
 10123  9391  9393    1
 10124  9391  9392    1
 10125 15805 15807    1
 10126 15805 15806    1
 10127 18784 18786    1
 10128 18784 18785    1
 10129 17705 17704    1
 10130 15923 15922    1
 10131  9509  9508    1
 10132  5774  5773    1
 10133 14228 14227    1
 10134 19862 19861    1
 10135 12188 12187    1
 10136  7814  7813    1
 10137 18872 18871    1
 10138 17688 17686    1
 10139 16827 16825    1
 10140 18855 18853    1
 10141 10629 10627    1
 10142  7770  7768    1
 10143  4215  4213    1
 10144 15897 15895    1
 10145  9483  9481    1
 10146  5730  5728    1
 10147 19851 19849    1
 10148 12144 12142    1
 10149 14184 14182    1
 10150  4135  4137    1
 10151  4135  4136    1
 10152  7600  7602    1
 10153  7600  7601    1
 10154  1081  1083    1
 10155  1081  1082    1
 10156  3280  3282    1
 10157  3280  3281    1
 10158  5560  5562    1
 10159  5560  5561    1
 10160   244   246    1
 10161   244   245    1
 10162 11974 11976    1
 10163 11974 11975    1
 10164 14014 14016    1
 10165 14014 14015    1
 10166  9352  9354    1
 10167  9352  9353    1
 10168  2272  2274    1
 10169  2272  2273    1
 10170 10549 10551    1
 10171 10549 10550    1
 10172 15766 15768    1
 10173 15766 15767    1
 10174 11987 11986    1
 10175 15779 15778    1
 10176 17594 17593    1
 10177 19775 19774    1
 10178 18761 18760    1
 10179  5573  5572    1
 10180  9365  9364    1
 10181 14027 14026    1
 10182  7613  7612    1
 10183  5441  5440    1
 10184  9305  9304    1
 10185 19742 19741    1
 10186 15719 15718    1
 10187 18680 18679    1
 10188 13895 13894    1
 10189 11855 11854    1
 10190  7481  7480    1
 10191 17513 17512    1
 10192 13872 13870    1
 10193  2184  2182    1
 10194 11832 11830    1
 10195  7458  7456    1
 10196   993   991    1
 10197 15699 15697    1
 10198  4047  4045    1
 10199 10461 10459    1
 10200  3237  3235    1
 10201  5418  5416    1
 10202  9285  9283    1
 10203   186   184    1
 10204  9537  9535    1
 10205  7845  7843    1
 10206 18897 18895    1
 10207 15951 15949    1
 10208 17730 17728    1
 10209  4251  4249    1
 10210 19884 19882    1
 10211 10665 10663    1
 10212 12219 12217    1
 10213  5805  5803    1
 10214 16845 16843    1
 10215 14259 14257    1
 10216  2391  2389    1
 10217 14208 14206    1
 10218 18867 18865    1
 10219  9492  9490    1
 10220 15906 15904    1
 10221 19857 19855    1
 10222  3363  3361    1
 10223 17700 17698    1
 10224  7794  7792    1
 10225  5754  5752    1
 10226  1200  1198    1
 10227 12168 12166    1
 10228 14206 14207    1
 10229 18865 18866    1
 10230  9490  9491    1
 10231 15904 15905    1
 10232 19855 19856    1
 10233  2389  2390    1
 10234 17698 17699    1
 10235  5752  5753    1
 10236 12166 12167    1
 10237  3361  3362    1
 10238  1198  1199    1
 10239  7792  7793    1
 10240  9481  9482    1
 10241 19849 19850    1
 10242 17686 17687    1
 10243 18853 18854    1
 10244  5728  5729    1
 10245 16825 16826    1
 10246  4213  4214    1
 10247  7768  7769    1
 10248 15895 15896    1
 10249 10627 10628    1
 10250 12142 12143    1
 10251 14182 14183    1
 10252  4045  4046    1
 10253  9283  9284    1
 10254   991   992    1
 10255 13870 13871    1
 10256   184   185    1
 10257 11830 11831    1
 10258  3235  3236    1
 10259 15697 15698    1
 10260  7456  7457    1
 10261  2182  2183    1
 10262  5416  5417    1
 10263 10459 10460    1
 10264  2221  2223    1
 10265  2221  2222    1
 10266 13948 13950    1
 10267 13948 13949    1
 10268  4087  4089    1
 10269  4087  4088    1
 10270  5494  5496    1
 10271  5494  5495    1
 10272  1030  1032    1
 10273  1030  1031    1
 10274   208   210    1
 10275   208   209    1
 10276  7534  7536    1
 10277  7534  7535    1
 10278 11908 11910    1
 10279 11908 11909    1
 10280 10501 10503    1
 10281 10501 10502    1
 10282  7760  7759    1
 10283   293   292    1
 10284  5720  5719    1
 10285  2369  2368    1
 10286 14174 14173    1
 10287  4208  4207    1
 10288  1178  1177    1
 10289 10622 10621    1
 10290 12134 12133    1
 10291 12122 12121    1
 10292  4196  4195    1
 10293 14162 14161    1
 10294   287   286    1
 10295  7748  7747    1
 10296  5708  5707    1
 10297 10610 10609    1
 10298  1172  1171    1
 10299  2363  2362    1
 10300 14021 14020    1
 10301  2279  2278    1
 10302  1088  1087    1
 10303 19769 19768    1
 10304  9359  9358    1
 10305  5567  5566    1
 10306  3287  3286    1
 10307 18755 18754    1
 10308 11981 11980    1
 10309 15773 15772    1
 10310  7607  7606    1
 10311 17588 17587    1
 10312 16744 16745    1
 10313  7510  7511    1
 10314  5470  5471    1
 10315 10477 10478    1
 10316 18700 18701    1
 10317 13924 13925    1
 10318 17533 17534    1
 10319  4063  4064    1
 10320 11884 11885    1
 10321  2299  2301    1
 10322  2299  2300    1
 10323  4153  4155    1
 10324  4153  4154    1
 10325  7648  7650    1
 10326  7648  7649    1
 10327   259   261    1
 10328   259   260    1
 10329 10567 10569    1
 10330 10567 10568    1
 10331  1108  1110    1
 10332  1108  1109    1
 10333  5608  5610    1
 10334  5608  5609    1
 10335 12022 12024    1
 10336 12022 12023    1
 10337 14062 14064    1
 10338 14062 14063    1
 10339 12187 12189    1
 10340  5773  5775    1
 10341 19861 19863    1
 10342 14227 14229    1
 10343 18871 18873    1
 10344  9508  9510    1
 10345 15922 15924    1
 10346 17704 17706    1
 10347  7813  7815    1
 10348  4119  4117    1
 10349 13980 13978    1
 10350 16779 16777    1
 10351 18735 18733    1
 10352 11940 11938    1
 10353  7566  7564    1
 10354  5526  5524    1
 10355 10533 10531    1
 10356 17568 17566    1
 10357  1173  1171    1
 10358  2364  2362    1
 10359   288   286    1
 10360 10611 10609    1
 10361  7749  7747    1
 10362 14163 14161    1
 10363  5709  5707    1
 10364 12123 12121    1
 10365  4197  4195    1
 10366 10712 10711    1
 10367 17762 17761    1
 10368 14315 14314    1
 10369  4298  4297    1
 10370  5861  5860    1
 10371 12275 12274    1
 10372 16874 16873    1
 10373 18929 18928    1
 10374  7901  7900    1
 10375  4301  4300    1
 10376 14321 14320    1
 10377 10715 10714    1
 10378 12281 12280    1
 10379  7907  7906    1
 10380  5867  5866    1
 10381  1253  1252    1
 10382   338   337    1
 10383  2444  2443    1
 10384 17579 17578    1
 10385 18746 18745    1
 10386  7589  7588    1
 10387  5549  5548    1
 10388 14003 14002    1
 10389  9344  9343    1
 10390  2264  2263    1
 10391 15758 15757    1
 10392 11963 11962    1
 10393  3272  3271    1
 10394 19763 19762    1
 10395  1073  1072    1
 10396 19768 19770    1
 10397  7606  7608    1
 10398 14020 14022    1
 10399  1087  1089    1
 10400 15772 15774    1
 10401  2278  2280    1
 10402  5566  5568    1
 10403 11980 11982    1
 10404  9358  9360    1
 10405 17587 17589    1
 10406  3286  3288    1
 10407 18754 18756    1
 10408  2181  2179    1
 10409   990   988    1
 10410 15693 15691    1
 10411  5412  5410    1
 10412 13866 13864    1
 10413  9279  9277    1
 10414 11826 11824    1
 10415  3234  3232    1
 10416  7452  7450    1
 10417  5616  5614    1
 10418  7656  7654    1
 10419 15816 15814    1
 10420 14070 14068    1
 10421  9402  9400    1
 10422  2304  2302    1
 10423  3306  3304    1
 10424 12030 12028    1
 10425  1113  1111    1
 10426 19840 19842    1
 10427 19840 19841    1
 10428  4201  4203    1
 10429  4201  4202    1
 10430  9472  9474    1
 10431  9472  9473    1
 10432 12127 12129    1
 10433 12127 12128    1
 10434 16816 16818    1
 10435 16816 16817    1
 10436 18841 18843    1
 10437 18841 18842    1
 10438 14167 14169    1
 10439 14167 14168    1
 10440  7753  7755    1
 10441  7753  7754    1
 10442 10615 10617    1
 10443 10615 10616    1
 10444 15886 15888    1
 10445 15886 15887    1
 10446 17674 17676    1
 10447 17674 17675    1
 10448  5713  5715    1
 10449  5713  5714    1
 10450  1054  1056    1
 10451  1054  1055    1
 10452  7567  7569    1
 10453  7567  7568    1
 10454  3259  3261    1
 10455  3259  3260    1
 10456  2245  2247    1
 10457  2245  2246    1
 10458 11941 11943    1
 10459 11941 11942    1
 10460 15742 15744    1
 10461 15742 15743    1
 10462  5527  5529    1
 10463  5527  5528    1
 10464  9328  9330    1
 10465  9328  9329    1
 10466 13981 13983    1
 10467 13981 13982    1
 10468  9456  9454    1
 10469  1164  1162    1
 10470  3345  3343    1
 10471  2355  2353    1
 10472 14148 14146    1
 10473  5694  5692    1
 10474 12108 12106    1
 10475  7734  7732    1
 10476 15870 15868    1
 10477  5440  5442    1
 10478  7480  7482    1
 10479  9304  9306    1
 10480 19741 19743    1
 10481 13894 13896    1
 10482 18679 18681    1
 10483 11854 11856    1
 10484 17512 17514    1
 10485 15718 15720    1
 10486  7588  7590    1
 10487  9343  9345    1
 10488 18745 18747    1
 10489 14002 14004    1
 10490  5548  5550    1
 10491 15757 15759    1
 10492  3271  3273    1
 10493 17578 17580    1
 10494  2263  2265    1
 10495 11962 11964    1
 10496  1072  1074    1
 10497 19762 19764    1
 10498 14175 14173    1
 10499  7761  7759    1
 10500  2370  2368    1
 10501  5721  5719    1
 10502   294   292    1
 10503 10623 10621    1
 10504 12135 12133    1
 10505  1179  1177    1
 10506  4209  4207    1
 10507 12220 12221    1
 10508 12220 12222    1
 10509  1225  1226    1
 10510  1225  1227    1
 10511 10666 10667    1
 10512 10666 10668    1
 10513  5806  5807    1
 10514  5806  5808    1
 10515 14260 14261    1
 10516 14260 14262    1
 10517  7846  7847    1
 10518  7846  7848    1
 10519  4252  4253    1
 10520  4252  4254    1
 10521  2416  2417    1
 10522  2416  2418    1
 10523   316   317    1
 10524   316   318    1
 10525 16873 16875    1
 10526 17761 17763    1
 10527 12274 12276    1
 10528  4297  4299    1
 10529  7900  7902    1
 10530 14314 14316    1
 10531 10711 10713    1
 10532 18928 18930    1
 10533  5860  5862    1
 10534 12029 12028    1
 10535 14069 14068    1
 10536  3305  3304    1
 10537  1112  1111    1
 10538  7655  7654    1
 10539 15815 15814    1
 10540  5615  5614    1
 10541  9401  9400    1
 10542  2303  2302    1
 10543 18695 18694    1
 10544  5459  5458    1
 10545 11873 11872    1
 10546 16739 16738    1
 10547  7499  7498    1
 10548  4055  4054    1
 10549 13913 13912    1
 10550 10469 10468    1
 10551 17528 17527    1
 10552  5866  5868    1
 10553  7906  7908    1
 10554  1252  1254    1
 10555  4300  4302    1
 10556 14320 14322    1
 10557   337   339    1
 10558 12280 12282    1
 10559  2443  2445    1
 10560 10714 10716    1
 10561 11938 11939    1
 10562 17566 17567    1
 10563  5524  5525    1
 10564 18733 18734    1
 10565 10531 10532    1
 10566  7564  7565    1
 10567 16777 16778    1
 10568 13978 13979    1
 10569  4117  4118    1
 10570   301   303    1
 10571   301   302    1
 10572  5740  5742    1
 10573  5740  5741    1
 10574  2383  2385    1
 10575  2383  2384    1
 10576  7780  7782    1
 10577  7780  7781    1
 10578  4222  4224    1
 10579  4222  4223    1
 10580 10636 10638    1
 10581 10636 10637    1
 10582 14194 14196    1
 10583 14194 14195    1
 10584 12154 12156    1
 10585 12154 12155    1
 10586  1192  1194    1
 10587  1192  1193    1
 10588  7899  7897    1
 10589   336   334    1
 10590 16872 16870    1
 10591  2442  2440    1
 10592  5859  5857    1
 10593  4296  4294    1
 10594 18927 18925    1
 10595 14313 14311    1
 10596 10710 10708    1
 10597 12273 12271    1
 10598 17760 17758    1
 10599  1251  1249    1
 10600  5423  5422    1
 10601  2186  2185    1
 10602  3239  3238    1
 10603   995   994    1
 10604  7463  7462    1
 10605  9290  9289    1
 10606 15704 15703    1
 10607 13877 13876    1
 10608 11837 11836    1
 10609 18860 18859    1
 10610 14198 14197    1
 10611 17693 17692    1
 10612 12158 12157    1
 10613  4226  4225    1
 10614 10640 10639    1
 10615 16832 16831    1
 10616  5744  5743    1
 10617  7784  7783    1
 10618 18925 18926    1
 10619  2440  2441    1
 10620 16870 16871    1
 10621  7897  7898    1
 10622   334   335    1
 10623 17758 17759    1
 10624  1249  1250    1
 10625 14311 14312    1
 10626 12271 12272    1
 10627 10708 10709    1
 10628  4294  4295    1
 10629  5857  5858    1
 10630  9277  9278    1
 10631  3232  3233    1
 10632 15691 15692    1
 10633  7450  7451    1
 10634   988   989    1
 10635 11824 11825    1
 10636 13864 13865    1
 10637  5410  5411    1
 10638  2179  2180    1
 10639  7733  7732    1
 10640  3344  3343    1
 10641  5693  5692    1
 10642 15869 15868    1
 10643  1163  1162    1
 10644 12107 12106    1
 10645  9455  9454    1
 10646 14147 14146    1
 10647  2354  2353    1
 10648  4225  4227    1
 10649 18859 18861    1
 10650 12157 12159    1
 10651 14197 14199    1
 10652  5743  5745    1
 10653 17692 17694    1
 10654 16831 16833    1
 10655 10639 10641    1
 10656  7783  7785    1
 10657 13944 13942    1
 10658  5490  5488    1
 10659 17547 17545    1
 10660  1029  1027    1
 10661  2220  2218    1
 10662  4083  4081    1
 10663 10497 10495    1
 10664 11904 11902    1
 10665 18714 18712    1
 10666 16758 16756    1
 10667  7530  7528    1
 10668   207   205    1
 10669  5700  5698    1
 10670 14154 14152    1
 10671 12114 12112    1
 10672 19836 19834    1
 10673 15876 15874    1
 10674 18837 18835    1
 10675 17670 17668    1
 10676  7740  7738    1
 10677  9462  9460    1
 10678 15857 15856    1
 10679 12095 12094    1
 10680  7721  7720    1
 10681 14135 14134    1
 10682 17657 17656    1
 10683 19823 19822    1
 10684 18824 18823    1
 10685  9443  9442    1
 10686  5681  5680    1
 10687  1085  1084    1
 10688  9356  9355    1
 10689 10553 10552    1
 10690  5564  5563    1
 10691  2276  2275    1
 10692  4139  4138    1
 10693 11978 11977    1
 10694   248   247    1
 10695  3284  3283    1
 10696  7604  7603    1
 10697 15770 15769    1
 10698 14018 14017    1
 10699  7739  7738    1
 10700 12113 12112    1
 10701  9461  9460    1
 10702 15875 15874    1
 10703 17669 17668    1
 10704 18836 18835    1
 10705 14153 14152    1
 10706 19835 19834    1
 10707  5699  5698    1
 10708 16740 16738    1
 10709  4056  4054    1
 10710  5460  5458    1
 10711 17529 17527    1
 10712 18696 18694    1
 10713 10470 10468    1
 10714 13914 13912    1
 10715 11874 11872    1
 10716  7500  7498    1
 10717 19822 19824    1
 10718 14134 14136    1
 10719 17656 17658    1
 10720 18823 18825    1
 10721 15856 15858    1
 10722  9442  9444    1
 10723  7720  7722    1
 10724 12094 12096    1
 10725  5680  5682    1
 10726 18713 18712    1
 10727 17546 17545    1
 10728 16757 16756    1
 10729 10496 10495    1
 10730 13943 13942    1
 10731  5489  5488    1
 10732  2219  2218    1
 10733  1028  1027    1
 10734  4082  4081    1
 10735  7529  7528    1
 10736   206   205    1
 10737 11903 11902    1
 10738 10620 10618    1
 10739 14172 14170    1
 10740 19845 19843    1
 10741  4206  4204    1
 10742  5718  5716    1
 10743 16821 16819    1
 10744 17679 17677    1
 10745 12132 12130    1
 10746  9477  9475    1
 10747 18846 18844    1
 10748  7758  7756    1
 10749 15891 15889    1
 10750   277   279    1
 10751   277   278    1
 10752 10600 10602    1
 10753 10600 10601    1
 10754  2347  2349    1
 10755  2347  2348    1
 10756 14140 14142    1
 10757 14140 14141    1
 10758 12100 12102    1
 10759 12100 12101    1
 10760  5686  5688    1
 10761  5686  5687    1
 10762  7726  7728    1
 10763  7726  7727    1
 10764  9448  9450    1
 10765  9448  9449    1
 10766 15862 15864    1
 10767 15862 15863    1
 10768  1156  1158    1
 10769  1156  1157    1
 10770  4186  4188    1
 10771  4186  4187    1
 10772  3337  3339    1
 10773  3337  3338    1
 10774 11888 11887    1
 10775 18704 18703    1
 10776 16748 16747    1
 10777  5474  5473    1
 10778 10481 10480    1
 10779 17537 17536    1
 10780  4067  4066    1
 10781  7514  7513    1
 10782 13928 13927    1
 10783  3240  3238    1
 10784  7464  7462    1
 10785   996   994    1
 10786 11838 11836    1
 10787 13878 13876    1
 10788 15705 15703    1
 10789  5424  5422    1
 10790  2187  2185    1
 10791  9291  9289    1
 10792  9541  9543    1
 10793  9541  9542    1
 10794  1243  1245    1
 10795  1243  1244    1
 10796 15955 15957    1
 10797 15955 15956    1
 10798 12265 12267    1
 10799 12265 12266    1
 10800  5851  5853    1
 10801  5851  5852    1
 10802  3385  3387    1
 10803  3385  3386    1
 10804 14305 14307    1
 10805 14305 14306    1
 10806  2434  2436    1
 10807  2434  2435    1
 10808  7891  7893    1
 10809  7891  7892    1
 10810  4257  4255    1
 10811 18900 18898    1
 10812 16848 16846    1
 10813 12225 12223    1
 10814 17733 17731    1
 10815  5811  5809    1
 10816 14265 14263    1
 10817  7851  7849    1
 10818 10671 10669    1
 10819   356   355    1
 10820  1292  1291    1
 10821  4337  4336    1
 10822 14384 14383    1
 10823 10751 10750    1
 10824 12344 12343    1
 10825  5930  5929    1
 10826  7970  7969    1
 10827  2483  2482    1
 10828 17654 17653    1
 10829 19820 19819    1
 10830 18821 18820    1
 10831 15854 15853    1
 10832  7718  7717    1
 10833 14132 14131    1
 10834  9440  9439    1
 10835  5678  5677    1
 10836 12092 12091    1
 10837 16747 16749    1
 10838 10480 10482    1
 10839  4066  4068    1
 10840  7513  7515    1
 10841 17536 17538    1
 10842 13927 13929    1
 10843  5473  5475    1
 10844 18703 18705    1
 10845 11887 11889    1
 10846 10554 10552    1
 10847  9357  9355    1
 10848  2277  2275    1
 10849  7605  7603    1
 10850  3285  3283    1
 10851  1086  1084    1
 10852 14019 14017    1
 10853   249   247    1
 10854  5565  5563    1
 10855  4140  4138    1
 10856 15771 15769    1
 10857 11979 11977    1
 10858  1293  1291    1
 10859 10752 10750    1
 10860 14385 14383    1
 10861  7971  7969    1
 10862   357   355    1
 10863 12345 12343    1
 10864  5931  5929    1
 10865  4338  4336    1
 10866  2484  2482    1
 10867 15890 15889    1
 10868 18845 18844    1
 10869  7757  7756    1
 10870 17678 17677    1
 10871 19844 19843    1
 10872  5717  5716    1
 10873 14171 14170    1
 10874  4205  4204    1
 10875 16820 16819    1
 10876  9476  9475    1
 10877 12131 12130    1
 10878 10619 10618    1
 10879 12339 12337    1
 10880  2481  2479    1
 10881 18966 18964    1
 10882  5925  5923    1
 10883 15987 15985    1
 10884 19899 19897    1
 10885  1290  1288    1
 10886  9573  9571    1
 10887  3411  3409    1
 10888  7965  7963    1
 10889 17799 17797    1
 10890 14379 14377    1
 10891 19804 19806    1
 10892 19804 19805    1
 10893 14071 14073    1
 10894 14071 14072    1
 10895 17623 17625    1
 10896 17623 17624    1
 10897 12031 12033    1
 10898 12031 12032    1
 10899  1114  1116    1
 10900  1114  1115    1
 10901  7657  7659    1
 10902  7657  7658    1
 10903 18790 18792    1
 10904 18790 18791    1
 10905  9403  9405    1
 10906  9403  9404    1
 10907  3307  3309    1
 10908  3307  3308    1
 10909  2305  2307    1
 10910  2305  2306    1
 10911 15817 15819    1
 10912 15817 15818    1
 10913  5617  5619    1
 10914  5617  5618    1
 10915  7849  7850    1
 10916 16846 16847    1
 10917  4255  4256    1
 10918 18898 18899    1
 10919 12223 12224    1
 10920  5809  5810    1
 10921 14263 14264    1
 10922 17731 17732    1
 10923 10669 10670    1
 10924 10605 10603    1
 10925  5703  5701    1
 10926   282   280    1
 10927  7743  7741    1
 10928 15879 15877    1
 10929  2358  2356    1
 10930 12117 12115    1
 10931  3348  3346    1
 10932  4191  4189    1
 10933  9465  9463    1
 10934 14157 14155    1
 10935  1167  1165    1
 10936  9584  9583    1
 10937 12356 12355    1
 10938 15998 15997    1
 10939  7982  7981    1
 10940 17807 17806    1
 10941 14396 14395    1
 10942 18974 18973    1
 10943 19904 19903    1
 10944  5942  5941    1
 10945 15711 15709    1
 10946 17511 17509    1
 10947  5433  5431    1
 10948 18678 18676    1
 10949 11847 11845    1
 10950  9297  9295    1
 10951 13887 13885    1
 10952  7473  7471    1
 10953 19740 19738    1
 10954   102   100    1
 10955 10314 10312    1
 10956   861   859    1
 10957  7218  7216    1
 10958 11592 11590    1
 10959  5178  5176    1
 10960  3900  3898    1
 10961  2052  2050    1
 10962 13632 13630    1
 10963   104   103    1
 10964 11597 11596    1
 10965  3905  3904    1
 10966  7223  7222    1
 10967 10319 10318    1
 10968  5183  5182    1
 10969 13637 13636    1
 10970   863   862    1
 10971  2054  2053    1
 10972  2356  2357    1
 10973 12115 12116    1
 10974 15877 15878    1
 10975  3346  3347    1
 10976  9463  9464    1
 10977 10603 10604    1
 10978  5701  5702    1
 10979  7741  7742    1
 10980  4189  4190    1
 10981  1165  1166    1
 10982 14155 14156    1
 10983   280   281    1
 10984  5941  5943    1
 10985 14395 14397    1
 10986 18973 18975    1
 10987  7981  7983    1
 10988  9583  9585    1
 10989 19903 19905    1
 10990 12355 12357    1
 10991 15997 15999    1
 10992 17806 17808    1
 10993 19819 19821    1
 10994 17653 17655    1
 10995 15853 15855    1
 10996 18820 18822    1
 10997  5677  5679    1
 10998  7717  7719    1
 10999 12091 12093    1
 11000 14131 14133    1
 11001  9439  9441    1
 11002  7711  7712    1
 11003  7711  7713    1
 11004  2341  2342    1
 11005  2341  2343    1
 11006  1150  1151    1
 11007  1150  1152    1
 11008  5671  5672    1
 11009  5671  5673    1
 11010 12085 12086    1
 11011 12085 12087    1
 11012 15847 15848    1
 11013 15847 15849    1
 11014  3331  3332    1
 11015  3331  3333    1
 11016 14125 14126    1
 11017 14125 14127    1
 11018  9433  9434    1
 11019  9433  9435    1
 11020 19897 19898    1
 11021 15985 15986    1
 11022  3409  3410    1
 11023 18964 18965    1
 11024  2479  2480    1
 11025 12337 12338    1
 11026  9571  9572    1
 11027  1288  1289    1
 11028 14377 14378    1
 11029 17797 17798    1
 11030  7963  7964    1
 11031  5923  5924    1
 11032  2224  2226    1
 11033  2224  2225    1
 11034 16762 16764    1
 11035 16762 16763    1
 11036 18718 18720    1
 11037 18718 18719    1
 11038   211   213    1
 11039   211   212    1
 11040 17551 17553    1
 11041 17551 17552    1
 11042  1033  1035    1
 11043  1033  1034    1
 11044 11911 11913    1
 11045 11911 11912    1
 11046  5497  5499    1
 11047  5497  5498    1
 11048 13951 13953    1
 11049 13951 13952    1
 11050 10504 10506    1
 11051 10504 10505    1
 11052  7537  7539    1
 11053  7537  7538    1
 11054  4090  4092    1
 11055  4090  4091    1
 11056  5232  5230    1
 11057   120   118    1
 11058  3930  3928    1
 11059  7272  7270    1
 11060   891   889    1
 11061 13686 13684    1
 11062 11646 11644    1
 11063  2082  2080    1
 11064 10344 10342    1
 11065 14394 14392    1
 11066 16902 16900    1
 11067  4341  4339    1
 11068 10755 10753    1
 11069  7980  7978    1
 11070 17805 17803    1
 11071 18972 18970    1
 11072  5940  5938    1
 11073 12354 12352    1
 11074    54    52    1
 11075 11466 11464    1
 11076  3837  3835    1
 11077   774   772    1
 11078  1965  1963    1
 11079  7092  7090    1
 11080 13506 13504    1
 11081 10251 10249    1
 11082  5052  5050    1
 11083 14392 14393    1
 11084  7978  7979    1
 11085 17803 17804    1
 11086 18970 18971    1
 11087 10753 10754    1
 11088  5938  5939    1
 11089  4339  4340    1
 11090 12352 12353    1
 11091 16900 16901    1
 11092 15709 15710    1
 11093 18676 18677    1
 11094 17509 17510    1
 11095  5431  5432    1
 11096 19738 19739    1
 11097  9295  9296    1
 11098 11845 11846    1
 11099  7471  7472    1
 11100 13885 13886    1
 11101  2043  2041    1
 11102  9150  9148    1
 11103 18534 18532    1
 11104  3165  3163    1
 11105  5166  5164    1
 11106  7206  7204    1
 11107 15564 15562    1
 11108 13620 13618    1
 11109 11580 11578    1
 11110   852   850    1
 11111 19656 19654    1
 11112 17367 17365    1
 11113 16655 16654    1
 11114  9158  9157    1
 11115 13628 13627    1
 11116 11588 11587    1
 11117  7214  7213    1
 11118 10310 10309    1
 11119  3170  3169    1
 11120    98    97    1
 11121   857   856    1
 11122 18539 18538    1
 11123 19661 19660    1
 11124  3896  3895    1
 11125 17372 17371    1
 11126  5174  5173    1
 11127  2048  2047    1
 11128 15572 15571    1
 11129  2053  2055    1
 11130  5182  5184    1
 11131  7222  7224    1
 11132   103   105    1
 11133  3904  3906    1
 11134   862   864    1
 11135 13636 13638    1
 11136 11596 11598    1
 11137 10318 10320    1
 11138 10312 10313    1
 11139  7216  7217    1
 11140 13630 13631    1
 11141  5176  5177    1
 11142  2050  2051    1
 11143  3898  3899    1
 11144   859   860    1
 11145 11590 11591    1
 11146   100   101    1
 11147 15558 15556    1
 11148  2040  2038    1
 11149  9144  9142    1
 11150  5160  5158    1
 11151   849   847    1
 11152  3162  3160    1
 11153  7200  7198    1
 11154 11574 11572    1
 11155 13614 13612    1
 11156 16676 16675    1
 11157  7283  7282    1
 11158 18575 18574    1
 11159 11657 11656    1
 11160  3941  3940    1
 11161  5243  5242    1
 11162 13697 13696    1
 11163 10355 10354    1
 11164 17408 17407    1
 11165 15522 15520    1
 11166 19635 19633    1
 11167  9108  9106    1
 11168 18507 18505    1
 11169 11523 11521    1
 11170 17340 17338    1
 11171  5109  5107    1
 11172 13563 13561    1
 11173  7149  7147    1
 11174 13667 13666    1
 11175 17390 17389    1
 11176  5213  5212    1
 11177  7253  7252    1
 11178 15599 15598    1
 11179 19676 19675    1
 11180  9185  9184    1
 11181 11627 11626    1
 11182 18557 18556    1
 11183 15557 15556    1
 11184 11573 11572    1
 11185  5159  5158    1
 11186   848   847    1
 11187  7199  7198    1
 11188  3161  3160    1
 11189 13613 13612    1
 11190  2039  2038    1
 11191  9143  9142    1
 11192 13684 13685    1
 11193  3928  3929    1
 11194 10342 10343    1
 11195   889   890    1
 11196  7270  7271    1
 11197 11644 11645    1
 11198  5230  5231    1
 11199   118   119    1
 11200  2080  2081    1
 11201 17389 17391    1
 11202  5212  5214    1
 11203 13666 13668    1
 11204  9184  9186    1
 11205 11626 11628    1
 11206 18556 18558    1
 11207  7252  7254    1
 11208 19675 19677    1
 11209 15598 15600    1
 11210  3835  3836    1
 11211  5050  5051    1
 11212  1963  1964    1
 11213 10249 10250    1
 11214  7090  7091    1
 11215 11464 11465    1
 11216 13504 13505    1
 11217   772   773    1
 11218    52    53    1
 11219  3169  3171    1
 11220 19660 19662    1
 11221 18538 18540    1
 11222  2047  2049    1
 11223 10309 10311    1
 11224 15571 15573    1
 11225  7213  7215    1
 11226    97    99    1
 11227 16654 16656    1
 11228  3895  3897    1
 11229  9157  9159    1
 11230  5173  5175    1
 11231   856   858    1
 11232 13627 13629    1
 11233 17371 17373    1
 11234 11587 11589    1
 11235  5242  5244    1
 11236 13696 13698    1
 11237 16675 16677    1
 11238 11656 11658    1
 11239 18574 18576    1
 11240 10354 10356    1
 11241  7282  7284    1
 11242  3940  3942    1
 11243 17407 17409    1
 11244  5126  5125    1
 11245 11540 11539    1
 11246 13580 13579    1
 11247 17348 17347    1
 11248 15536 15535    1
 11249  2015  2014    1
 11250  9122  9121    1
 11251 19640 19639    1
 11252  3146  3145    1
 11253  7166  7165    1
 11254 18515 18514    1
 11255   824   823    1
 11256 18549 18547    1
 11257 15588 15586    1
 11258 17382 17380    1
 11259  9174  9172    1
 11260  5202  5200    1
 11261 19668 19666    1
 11262 13656 13654    1
 11263 11616 11614    1
 11264  7242  7240    1
 11265  2057  2056    1
 11266  3908  3907    1
 11267 13640 13639    1
 11268   866   865    1
 11269  5186  5185    1
 11270  7226  7225    1
 11271 10322 10321    1
 11272 11600 11599    1
 11273   107   106    1
 11274  7185  7183    1
 11275    90    88    1
 11276  3888  3886    1
 11277 15546 15544    1
 11278   837   835    1
 11279 13599 13597    1
 11280 11559 11557    1
 11281 10302 10300    1
 11282  3153  3151    1
 11283  5145  5143    1
 11284  9132  9130    1
 11285  2028  2026    1
 11286  5164  5165    1
 11287   850   851    1
 11288  3163  3164    1
 11289 18532 18533    1
 11290  9148  9149    1
 11291  2041  2042    1
 11292 19654 19655    1
 11293 13618 13619    1
 11294 11578 11579    1
 11295 15562 15563    1
 11296 17365 17366    1
 11297  7204  7205    1
 11298 11643 11641    1
 11299  2079  2077    1
 11300 13683 13681    1
 11301  5229  5227    1
 11302  3927  3925    1
 11303  7269  7267    1
 11304   888   886    1
 11305   117   115    1
 11306 10341 10339    1
 11307 13464 13462    1
 11308  3810  3808    1
 11309  7050  7048    1
 11310  5010  5008    1
 11311 10224 10222    1
 11312 16617 16615    1
 11313 11424 11422    1
 11314 18453 18451    1
 11315 17286 17284    1
 11316  5200  5201    1
 11317  9172  9173    1
 11318 11614 11615    1
 11319 15586 15587    1
 11320 17380 17381    1
 11321 13654 13655    1
 11322  7240  7241    1
 11323 18547 18548    1
 11324 19666 19667    1
 11325  3808  3809    1
 11326 17284 17285    1
 11327 18451 18452    1
 11328  5008  5009    1
 11329 16615 16616    1
 11330 10222 10223    1
 11331  7048  7049    1
 11332 11422 11423    1
 11333 13462 13463    1
 11334   887   886    1
 11335 11642 11641    1
 11336   116   115    1
 11337 13682 13681    1
 11338 10340 10339    1
 11339  5228  5227    1
 11340  3926  3925    1
 11341  7268  7267    1
 11342  2078  2077    1
 11343 16661 16660    1
 11344 13670 13669    1
 11345  7256  7255    1
 11346  3914  3913    1
 11347 18560 18559    1
 11348 17393 17392    1
 11349  5216  5215    1
 11350 11630 11629    1
 11351 10328 10327    1
 11352  7231  7233    1
 11353  7231  7232    1
 11354  9163  9165    1
 11355  9163  9164    1
 11356 15577 15579    1
 11357 15577 15578    1
 11358  5191  5193    1
 11359  5191  5192    1
 11360  3175  3177    1
 11361  3175  3176    1
 11362 13645 13647    1
 11363 13645 13646    1
 11364  2062  2064    1
 11365  2062  2063    1
 11366 11605 11607    1
 11367 11605 11606    1
 11368   871   873    1
 11369   871   872    1
 11370 16640 16639    1
 11371  5087  5086    1
 11372  9089  9088    1
 11373 13541 13540    1
 11374 17324 17323    1
 11375 15503 15502    1
 11376 19619 19618    1
 11377 10274 10273    1
 11378 11501 11500    1
 11379  7127  7126    1
 11380  3860  3859    1
 11381 18491 18490    1
 11382  3907  3909    1
 11383 11599 11601    1
 11384  5185  5187    1
 11385   106   108    1
 11386  7225  7227    1
 11387  2056  2058    1
 11388 13639 13641    1
 11389   865   867    1
 11390 10321 10323    1
 11391 19633 19634    1
 11392  9106  9107    1
 11393  5107  5108    1
 11394 11521 11522    1
 11395 13561 13562    1
 11396  7147  7148    1
 11397 18505 18506    1
 11398 17338 17339    1
 11399 15520 15521    1
 11400  7183  7184    1
 11401 15544 15545    1
 11402    88    89    1
 11403  3151  3152    1
 11404 10300 10301    1
 11405   835   836    1
 11406  9130  9131    1
 11407  5143  5144    1
 11408 13597 13598    1
 11409  2026  2027    1
 11410 11557 11558    1
 11411  3886  3887    1
 11412  3864  3862    1
 11413  9102  9100    1
 11414 10278 10276    1
 11415  5100  5098    1
 11416  1998  1996    1
 11417 15516 15514    1
 11418  7140  7138    1
 11419  3132  3130    1
 11420 13554 13552    1
 11421   807   805    1
 11422    75    73    1
 11423 11514 11512    1
 11424 15524 15523    1
 11425  3137  3136    1
 11426   815   814    1
 11427 11525 11524    1
 11428  2006  2005    1
 11429 13565 13564    1
 11430  7151  7150    1
 11431  5111  5110    1
 11432  9110  9109    1
 11433 15488 15487    1
 11434   785   784    1
 11435    65    64    1
 11436  5063  5062    1
 11437  7103  7102    1
 11438 11477 11476    1
 11439  9074  9073    1
 11440  3116  3115    1
 11441 13517 13516    1
 11442  3848  3847    1
 11443  1976  1975    1
 11444 10262 10261    1
 11445 19657 19659    1
 11446 19657 19658    1
 11447  7207  7209    1
 11448  7207  7208    1
 11449 17368 17370    1
 11450 17368 17369    1
 11451 18535 18537    1
 11452 18535 18536    1
 11453  5167  5169    1
 11454  5167  5168    1
 11455 15565 15567    1
 11456 15565 15566    1
 11457 13621 13623    1
 11458 13621 13622    1
 11459 11581 11583    1
 11460 11581 11582    1
 11461  9151  9153    1
 11462  9151  9152    1
 11463  1996  1997    1
 11464    73    74    1
 11465  7138  7139    1
 11466  9100  9101    1
 11467 10276 10277    1
 11468  3130  3131    1
 11469 13552 13553    1
 11470  3862  3863    1
 11471   805   806    1
 11472  5098  5099    1
 11473 15514 15515    1
 11474 11512 11513    1
 11475 15489 15487    1
 11476   786   784    1
 11477  5064  5062    1
 11478  7104  7102    1
 11479 13518 13516    1
 11480  1977  1975    1
 11481 11478 11476    1
 11482 10263 10261    1
 11483    66    64    1
 11484  9075  9073    1
 11485  3117  3115    1
 11486  3849  3847    1
 11487  7165  7167    1
 11488 17347 17349    1
 11489  5125  5127    1
 11490 11539 11541    1
 11491 19639 19641    1
 11492  9121  9123    1
 11493 13579 13581    1
 11494  3145  3147    1
 11495 15535 15537    1
 11496  2014  2016    1
 11497   823   825    1
 11498 18514 18516    1
 11499  7032  7030    1
 11500 10212 10210    1
 11501   741   739    1
 11502 18441 18439    1
 11503 13446 13444    1
 11504  4992  4990    1
 11505  3798  3796    1
 11506 16608 16606    1
 11507  1932  1930    1
 11508 17274 17272    1
 11509    30    28    1
 11510 11406 11404    1
 11511 11576 11575    1
 11512  7202  7201    1
 11513 19652 19651    1
 11514 17363 17362    1
 11515  9146  9145    1
 11516 15560 15559    1
 11517 13616 13615    1
 11518  5162  5161    1
 11519 18530 18529    1
 11520 18458 18457    1
 11521 19607 19606    1
 11522  9068  9067    1
 11523  7064  7063    1
 11524 13478 13477    1
 11525 11438 11437    1
 11526 17291 17290    1
 11527  5024  5023    1
 11528 15482 15481    1
 11529 16660 16662    1
 11530  5215  5217    1
 11531 17392 17394    1
 11532 10327 10329    1
 11533  3913  3915    1
 11534 13669 13671    1
 11535 18559 18561    1
 11536  7255  7257    1
 11537 11629 11631    1
 11538 19618 19620    1
 11539 16639 16641    1
 11540 11500 11502    1
 11541  5086  5088    1
 11542  3859  3861    1
 11543 13540 13542    1
 11544 18490 18492    1
 11545 17323 17325    1
 11546  7126  7128    1
 11547 10273 10275    1
 11548 15502 15504    1
 11549  9088  9090    1
 11550 13600 13602    1
 11551 13600 13601    1
 11552  7186  7188    1
 11553  7186  7187    1
 11554  3889  3891    1
 11555  3889  3890    1
 11556    91    93    1
 11557    91    92    1
 11558  2029  2031    1
 11559  2029  2030    1
 11560 10303 10305    1
 11561 10303 10304    1
 11562  5146  5148    1
 11563  5146  5147    1
 11564   838   840    1
 11565   838   839    1
 11566 11560 11562    1
 11567 11560 11561    1
 11568  2005  2007    1
 11569  5110  5112    1
 11570 15523 15525    1
 11571  3136  3138    1
 11572  7150  7152    1
 11573 13564 13566    1
 11574 11524 11526    1
 11575  9109  9111    1
 11576   814   816    1
 11577 17292 17290    1
 11578  7065  7063    1
 11579 15483 15481    1
 11580 19608 19606    1
 11581 11439 11437    1
 11582 13479 13477    1
 11583  5025  5023    1
 11584  9069  9067    1
 11585 18459 18457    1
 11586    28    29    1
 11587  7030  7031    1
 11588 16606 16607    1
 11589  1930  1931    1
 11590 13444 13445    1
 11591  4990  4991    1
 11592 10210 10211    1
 11593 17272 17273    1
 11594 11404 11405    1
 11595   739   740    1
 11596  3796  3797    1
 11597 18439 18440    1
 11598  5079  5077    1
 11599  3858  3856    1
 11600 18486 18484    1
 11601  7119  7117    1
 11602 10272 10270    1
 11603 13533 13531    1
 11604 17319 17317    1
 11605 16638 16636    1
 11606 11493 11491    1
 11607  7013  7012    1
 11608  1922  1921    1
 11609  3095  3094    1
 11610 13427 13426    1
 11611  9029  9028    1
 11612  4973  4972    1
 11613 11387 11386    1
 11614 15443 15442    1
 11615   731   730    1
 11616  5190  5188    1
 11617  2061  2059    1
 11618 11604 11602    1
 11619 13644 13642    1
 11620 18546 18544    1
 11621 19665 19663    1
 11622  9162  9160    1
 11623  7230  7228    1
 11624  3174  3172    1
 11625 15576 15574    1
 11626   870   868    1
 11627 17379 17377    1
 11628 15530 15529    1
 11629 11531 11530    1
 11630  7157  7156    1
 11631  3140  3139    1
 11632   818   817    1
 11633  2009  2008    1
 11634 13571 13570    1
 11635  9116  9115    1
 11636  5117  5116    1
 11637 11577 11575    1
 11638  9147  9145    1
 11639 15561 15559    1
 11640 13617 13615    1
 11641 19653 19651    1
 11642  7203  7201    1
 11643 17364 17362    1
 11644  5163  5161    1
 11645 18531 18529    1
 11646 11492 11491    1
 11647 17318 17317    1
 11648 18485 18484    1
 11649  3857  3856    1
 11650  5078  5077    1
 11651  7118  7117    1
 11652 16637 16636    1
 11653 13532 13531    1
 11654 10271 10270    1
 11655 13745 13744    1
 11656  5291  5290    1
 11657  2108  2107    1
 11658  3197  3196    1
 11659  9209  9208    1
 11660   917   916    1
 11661 11705 11704    1
 11662  7331  7330    1
 11663 15623 15622    1
 11664    63    61    1
 11665  5061  5059    1
 11666 17310 17308    1
 11667 16632 16630    1
 11668  1974  1972    1
 11669  7101  7099    1
 11670   783   781    1
 11671 11475 11473    1
 11672 18477 18475    1
 11673  3846  3844    1
 11674 13515 13513    1
 11675 10260 10258    1
 11676 13457 13456    1
 11677 19598 19597    1
 11678  7043  7042    1
 11679  9050  9049    1
 11680 16613 16612    1
 11681  5003  5002    1
 11682 17279 17278    1
 11683 10220 10219    1
 11684 11417 11416    1
 11685 15464 15463    1
 11686  3806  3805    1
 11687 18446 18445    1
 11688 13736 13735    1
 11689  3965  3964    1
 11690   911   910    1
 11691 10379 10378    1
 11692   131   130    1
 11693 11696 11695    1
 11694  5282  5281    1
 11695  2102  2101    1
 11696  7322  7321    1
 11697 17278 17280    1
 11698 11416 11418    1
 11699 10219 10221    1
 11700 15463 15465    1
 11701 13456 13458    1
 11702 18445 18447    1
 11703 16612 16614    1
 11704 19597 19599    1
 11705  9049  9051    1
 11706  7042  7044    1
 11707  5002  5004    1
 11708  3805  3807    1
 11709 11473 11474    1
 11710   781   782    1
 11711  1972  1973    1
 11712  7099  7100    1
 11713 17308 17309    1
 11714 10258 10259    1
 11715    61    62    1
 11716  5059  5060    1
 11717 13513 13514    1
 11718 16630 16631    1
 11719 18475 18476    1
 11720  3844  3845    1
 11721 13735 13737    1
 11722 11695 11697    1
 11723  3964  3966    1
 11724 10378 10380    1
 11725  5281  5283    1
 11726   130   132    1
 11727  2101  2103    1
 11728   910   912    1
 11729  7321  7323    1
 11730  1991  1990    1
 11731  3125  3124    1
 11732   800   799    1
 11733  7124  7123    1
 11734 17321 17320    1
 11735 15500 15499    1
 11736 19616 19615    1
 11737 11498 11497    1
 11738 18488 18487    1
 11739  9086  9085    1
 11740  5084  5083    1
 11741 13538 13537    1
 11742   822   820    1
 11743  5121  5119    1
 11744  9120  9118    1
 11745 13575 13573    1
 11746  3144  3142    1
 11747 15534 15532    1
 11748  7161  7159    1
 11749  2013  2011    1
 11750 11535 11533    1
 11751 10315 10316    1
 11752 10315 10317    1
 11753  7219  7220    1
 11754  7219  7221    1
 11755  5179  5180    1
 11756  5179  5181    1
 11757 16657 16658    1
 11758 16657 16659    1
 11759 17374 17375    1
 11760 17374 17376    1
 11761 18541 18542    1
 11762 18541 18543    1
 11763 11593 11594    1
 11764 11593 11595    1
 11765  3901  3902    1
 11766  3901  3903    1
 11767 13633 13634    1
 11768 13633 13635    1
 11769 11637 11635    1
 11770  2076  2074    1
 11771 10335 10333    1
 11772  7263  7261    1
 11773   114   112    1
 11774  3921  3919    1
 11775 13677 13675    1
 11776   885   883    1
 11777  5223  5221    1
 11778   833   832    1
 11779 10295 10294    1
 11780 11552 11551    1
 11781 13592 13591    1
 11782  2024  2023    1
 11783  7178  7177    1
 11784  5138  5137    1
 11785    86    85    1
 11786  3881  3880    1
 11787  5172  5170    1
 11788 11586 11584    1
 11789 10308 10306    1
 11790  3894  3892    1
 11791   855   853    1
 11792    96    94    1
 11793  7212  7210    1
 11794  3168  3166    1
 11795  2046  2044    1
 11796  9156  9154    1
 11797 13626 13624    1
 11798 15570 15568    1
 11799  3139  3141    1
 11800  2008  2010    1
 11801 11530 11532    1
 11802   817   819    1
 11803 15529 15531    1
 11804  5116  5118    1
 11805  7156  7158    1
 11806 13570 13572    1
 11807  9115  9117    1
 11808 18544 18545    1
 11809 11602 11603    1
 11810 17377 17378    1
 11811  5188  5189    1
 11812 19663 19664    1
 11813   868   869    1
 11814 15574 15575    1
 11815  2059  2060    1
 11816 13642 13643    1
 11817  7228  7229    1
 11818  9160  9161    1
 11819  3172  3173    1
 11820  3880  3882    1
 11821   832   834    1
 11822 11551 11553    1
 11823  7177  7179    1
 11824  5137  5139    1
 11825  2023  2025    1
 11826 13591 13593    1
 11827    85    87    1
 11828 10294 10296    1
 11829  9028  9030    1
 11830  7012  7014    1
 11831 11386 11388    1
 11832  1921  1923    1
 11833  4972  4974    1
 11834 13426 13428    1
 11835   730   732    1
 11836  3094  3096    1
 11837 15442 15444    1
 11838 15526 15528    1
 11839 15526 15527    1
 11840 18508 18510    1
 11841 18508 18509    1
 11842 13567 13569    1
 11843 13567 13568    1
 11844  9112  9114    1
 11845  9112  9113    1
 11846 19636 19638    1
 11847 19636 19637    1
 11848 17341 17343    1
 11849 17341 17342    1
 11850  5113  5115    1
 11851  5113  5114    1
 11852  7153  7155    1
 11853  7153  7154    1
 11854 11527 11529    1
 11855 11527 11528    1
 11856  3196  3198    1
 11857 15622 15624    1
 11858  5290  5292    1
 11859  2107  2109    1
 11860 13744 13746    1
 11861   916   918    1
 11862  7330  7332    1
 11863 11704 11706    1
 11864  9208  9210    1
 11865  5293  5295    1
 11866  5293  5294    1
 11867  2110  2112    1
 11868  2110  2111    1
 11869 11707 11709    1
 11870 11707 11708    1
 11871 15625 15627    1
 11872 15625 15626    1
 11873  3199  3201    1
 11874  3199  3200    1
 11875 13747 13749    1
 11876 13747 13748    1
 11877  7333  7335    1
 11878  7333  7334    1
 11879   919   921    1
 11880   919   920    1
 11881  9211  9213    1
 11882  9211  9212    1
 11883 18579 18577    1
 11884 17412 17410    1
 11885 11661 11659    1
 11886 16680 16678    1
 11887  3945  3943    1
 11888  5247  5245    1
 11889  7287  7285    1
 11890 13701 13699    1
 11891 10359 10357    1
 11892 17410 17411    1
 11893 10357 10358    1
 11894  5245  5246    1
 11895  7285  7286    1
 11896  3943  3944    1
 11897 13699 13700    1
 11898 18577 18578    1
 11899 11659 11660    1
 11900 16678 16679    1
 11901 18487 18489    1
 11902  1990  1992    1
 11903 13537 13539    1
 11904  7123  7125    1
 11905  5083  5085    1
 11906   799   801    1
 11907  3124  3126    1
 11908 17320 17322    1
 11909  9085  9087    1
 11910 19615 19617    1
 11911 15499 15501    1
 11912 11497 11499    1
 11913 16620 16618    1
 11914  3819  3817    1
 11915  5034  5032    1
 11916  7074  7072    1
 11917 13488 13486    1
 11918 18465 18463    1
 11919 11448 11446    1
 11920 10233 10231    1
 11921 17298 17296    1
 11922  1953  1951    1
 11923   762   760    1
 11924    42    40    1
 11925  3166  3167    1
 11926 15568 15569    1
 11927 13624 13625    1
 11928  3892  3893    1
 11929  5170  5171    1
 11930   853   854    1
 11931    94    95    1
 11932  2044  2045    1
 11933 10306 10307    1
 11934 11584 11585    1
 11935  9154  9155    1
 11936  7210  7211    1
 11937  3194  3193    1
 11938  7319  7318    1
 11939   908   907    1
 11940  2099  2098    1
 11941 15617 15616    1
 11942  9203  9202    1
 11943  5279  5278    1
 11944 11693 11692    1
 11945 13733 13732    1
 11946 16646 16645    1
 11947 10286 10285    1
 11948 11537 11536    1
 11949 17345 17344    1
 11950 13577 13576    1
 11951  7163  7162    1
 11952 18512 18511    1
 11953  3872  3871    1
 11954  5123  5122    1
 11955  5222  5221    1
 11956  2075  2074    1
 11957  3920  3919    1
 11958   884   883    1
 11959  7262  7261    1
 11960 13676 13675    1
 11961   113   112    1
 11962 11636 11635    1
 11963 10334 10333    1
 11964 19669 19670    1
 11965 19669 19671    1
 11966  9175  9176    1
 11967  9175  9177    1
 11968 18550 18551    1
 11969 18550 18552    1
 11970 13657 13658    1
 11971 13657 13659    1
 11972  7243  7244    1
 11973  7243  7245    1
 11974  5203  5204    1
 11975  5203  5205    1
 11976 17383 17384    1
 11977 17383 17385    1
 11978 11617 11618    1
 11979 11617 11619    1
 11980 15589 15590    1
 11981 15589 15591    1
 11982  5019  5017    1
 11983  7059  7057    1
 11984 18456 18454    1
 11985  9063  9061    1
 11986 19605 19603    1
 11987 13473 13471    1
 11988 17289 17287    1
 11989 11433 11431    1
 11990 15477 15475    1
 11991   711   709    1
 11992  6981  6979    1
 11993 13395 13393    1
 11994  3765  3763    1
 11995  4941  4939    1
 11996     6     4    1
 11997 11355 11353    1
 11998 10179 10177    1
 11999  1902  1900    1
 12000  2093  2092    1
 12001  7307  7306    1
 12002 11681 11680    1
 12003 10367 10366    1
 12004 13721 13720    1
 12005  3953  3952    1
 12006   125   124    1
 12007   902   901    1
 12008  5267  5266    1
 12009  3142  3143    1
 12010 15532 15533    1
 12011 13573 13574    1
 12012  2011  2012    1
 12013  5119  5120    1
 12014   820   821    1
 12015  9118  9119    1
 12016 11533 11534    1
 12017  7159  7160    1
 12018 18598 18599    1
 12019 18598 18600    1
 12020  7315  7316    1
 12021  7315  7317    1
 12022  5275  5276    1
 12023  5275  5277    1
 12024  3961  3962    1
 12025  3961  3963    1
 12026 13729 13730    1
 12027 13729 13731    1
 12028 10375 10376    1
 12029 10375 10377    1
 12030 11689 11690    1
 12031 11689 11691    1
 12032 16693 16694    1
 12033 16693 16695    1
 12034 17431 17432    1
 12035 17431 17433    1
 12036 16618 16619    1
 12037 18463 18464    1
 12038  1951  1952    1
 12039  5032  5033    1
 12040  3817  3818    1
 12041   760   761    1
 12042 10231 10232    1
 12043 11446 11447    1
 12044 13486 13487    1
 12045 17296 17297    1
 12046  7072  7073    1
 12047    40    41    1
 12048  7116  7114    1
 12049    72    70    1
 12050 11490 11488    1
 12051  5076  5074    1
 12052 17316 17314    1
 12053   795   793    1
 12054 18483 18481    1
 12055 16635 16633    1
 12056  1986  1984    1
 12057 13530 13528    1
 12058  3855  3853    1
 12059 10269 10267    1
 12060  9061  9062    1
 12061 13471 13472    1
 12062 17287 17288    1
 12063 19603 19604    1
 12064 18454 18455    1
 12065  7057  7058    1
 12066 11431 11432    1
 12067 15475 15476    1
 12068  5017  5018    1
 12069 18495 18493    1
 12070 19623 19621    1
 12071  7131  7129    1
 12072  9093  9091    1
 12073 17328 17326    1
 12074 11505 11503    1
 12075 15507 15505    1
 12076 13545 13543    1
 12077  5091  5089    1
 12078  1983  1981    1
 12079 11484 11482    1
 12080  9078  9076    1
 12081  3120  3118    1
 12082  7110  7108    1
 12083 13524 13522    1
 12084 15492 15490    1
 12085   792   790    1
 12086  5070  5068    1
 12087 13732 13734    1
 12088  5278  5280    1
 12089 11692 11694    1
 12090  9202  9204    1
 12091 15616 15618    1
 12092  2098  2100    1
 12093  7318  7320    1
 12094  3193  3195    1
 12095   907   909    1
 12096   903   901    1
 12097 13722 13720    1
 12098   126   124    1
 12099  5268  5266    1
 12100 10368 10366    1
 12101  2094  2092    1
 12102  3954  3952    1
 12103 11682 11680    1
 12104  7308  7306    1
 12105 17344 17346    1
 12106  7162  7164    1
 12107 18511 18513    1
 12108 11536 11538    1
 12109  3871  3873    1
 12110 10285 10287    1
 12111 16645 16647    1
 12112 13576 13578    1
 12113  5122  5124    1
 12114 15491 15490    1
 12115  5069  5068    1
 12116 13523 13522    1
 12117  1982  1981    1
 12118   791   790    1
 12119  9077  9076    1
 12120  7109  7108    1
 12121  3119  3118    1
 12122 11483 11482    1
 12123  1985  1984    1
 12124 11489 11488    1
 12125 18482 18481    1
 12126  3854  3853    1
 12127 13529 13528    1
 12128 10268 10267    1
 12129 16634 16633    1
 12130   794   793    1
 12131  7115  7114    1
 12132  5075  5074    1
 12133 17315 17314    1
 12134    71    70    1
 12135  6980  6979    1
 12136     5     4    1
 12137 11354 11353    1
 12138  1901  1900    1
 12139 13394 13393    1
 12140  4940  4939    1
 12141   710   709    1
 12142  3764  3763    1
 12143 10178 10177    1
 12144  5043  5041    1
 12145 18468 18466    1
 12146 16623 16621    1
 12147  3828  3826    1
 12148  7083  7081    1
 12149 13497 13495    1
 12150 10242 10240    1
 12151 11457 11455    1
 12152 17301 17299    1
 12153 13689 13687    1
 12154 11649 11647    1
 12155  3933  3931    1
 12156  5235  5233    1
 12157  7275  7273    1
 12158 16671 16669    1
 12159 10347 10345    1
 12160 17403 17401    1
 12161 18570 18568    1
 12162  5089  5090    1
 12163  7129  7130    1
 12164 19621 19622    1
 12165 11503 11504    1
 12166 17326 17327    1
 12167  9091  9092    1
 12168 13543 13544    1
 12169 15505 15506    1
 12170 18493 18494    1
 12171  7328  7327    1
 12172 19688 19687    1
 12173 11702 11701    1
 12174 17435 17434    1
 12175 13742 13741    1
 12176 15620 15619    1
 12177 18602 18601    1
 12178  9206  9205    1
 12179  5288  5287    1
 12180  5012  5011    1
 12181 11426 11425    1
 12182   749   748    1
 12183  3107  3106    1
 12184  1940  1939    1
 12185  3812  3811    1
 12186  7052  7051    1
 12187 10226 10225    1
 12188 13466 13465    1
 12189 15470 15469    1
 12190    35    34    1
 12191  9056  9055    1
 12192 10345 10346    1
 12193 16669 16670    1
 12194 11647 11648    1
 12195 17401 17402    1
 12196  5233  5234    1
 12197 13687 13688    1
 12198  7273  7274    1
 12199 18568 18569    1
 12200  3931  3932    1
 12201  3159  3157    1
 12202  2037  2035    1
 12203 11571 11569    1
 12204 13611 13609    1
 12205 15555 15553    1
 12206  7197  7195    1
 12207  5157  5155    1
 12208  9141  9139    1
 12209   846   844    1
 12210 15471 15469    1
 12211 10227 10225    1
 12212  1941  1939    1
 12213  9057  9055    1
 12214 11427 11425    1
 12215  3108  3106    1
 12216  3813  3811    1
 12217   750   748    1
 12218    36    34    1
 12219  5013  5011    1
 12220  7053  7051    1
 12221 13467 13465    1
 12222 17300 17299    1
 12223  7082  7081    1
 12224 13496 13495    1
 12225 16622 16621    1
 12226 18467 18466    1
 12227 10241 10240    1
 12228 11456 11455    1
 12229  5042  5041    1
 12230  3827  3826    1
 12231 10214 10213    1
 12232  9041  9040    1
 12233 18443 18442    1
 12234  4994  4993    1
 12235  7034  7033    1
 12236 19595 19594    1
 12237  3800  3799    1
 12238 13448 13447    1
 12239 15455 15454    1
 12240 16610 16609    1
 12241 11408 11407    1
 12242 17276 17275    1
 12243 15440 15439    1
 12244  7007  7006    1
 12245 11381 11380    1
 12246 18422 18421    1
 12247 19583 19582    1
 12248 17255 17254    1
 12249  9026  9025    1
 12250  4967  4966    1
 12251 13421 13420    1
 12252 19689 19687    1
 12253 17436 17434    1
 12254  5289  5287    1
 12255 11703 11701    1
 12256 13743 13741    1
 12257 15621 15619    1
 12258  7329  7327    1
 12259 18603 18601    1
 12260  9207  9205    1
 12261 17271 17269    1
 12262  7029  7027    1
 12263   738   736    1
 12264    27    25    1
 12265 15453 15451    1
 12266 13443 13441    1
 12267 16605 16603    1
 12268 19593 19591    1
 12269 10209 10207    1
 12270 11403 11401    1
 12271 18438 18436    1
 12272  3099  3097    1
 12273  4989  4987    1
 12274  3795  3793    1
 12275  9039  9037    1
 12276  1929  1927    1
 12277  9140  9139    1
 12278 15554 15553    1
 12279  2036  2035    1
 12280  3158  3157    1
 12281  5156  5155    1
 12282 13610 13609    1
 12283 11570 11569    1
 12284  7196  7195    1
 12285   845   844    1
 12286    25    26    1
 12287 16603 16604    1
 12288  7027  7028    1
 12289 18436 18437    1
 12290 19591 19592    1
 12291  4987  4988    1
 12292   736   737    1
 12293 15451 15452    1
 12294 13441 13442    1
 12295 11401 11402    1
 12296  1927  1928    1
 12297  9037  9038    1
 12298 10207 10208    1
 12299  3097  3098    1
 12300  3793  3794    1
 12301 17269 17270    1
 12302 11633 11632    1
 12303 16664 16663    1
 12304 10331 10330    1
 12305  7259  7258    1
 12306 13673 13672    1
 12307  3917  3916    1
 12308  5219  5218    1
 12309  9188  9187    1
 12310 17396 17395    1
 12311 19679 19678    1
 12312 15602 15601    1
 12313 18563 18562    1
 12314  4956  4954    1
 12315  6996  6994    1
 12316 11370 11368    1
 12317  3774  3772    1
 12318 10188 10186    1
 12319  1914  1912    1
 12320   723   721    1
 12321 13410 13408    1
 12322    15    13    1
 12323 11549 11548    1
 12324 19643 19642    1
 12325  2021  2020    1
 12326 18521 18520    1
 12327 15539 15538    1
 12328   830   829    1
 12329  5135  5134    1
 12330 13589 13588    1
 12331  7175  7174    1
 12332  3149  3148    1
 12333 17354 17353    1
 12334  9125  9124    1
 12335    13    14    1
 12336  4954  4955    1
 12337 13408 13409    1
 12338  3772  3773    1
 12339 10186 10187    1
 12340  6994  6995    1
 12341  1912  1913    1
 12342   721   722    1
 12343 11368 11369    1
 12344  7168  7169    1
 12345  7168  7170    1
 12346  2017  2018    1
 12347  2017  2019    1
 12348    82    83    1
 12349    82    84    1
 12350   826   827    1
 12351   826   828    1
 12352  3874  3875    1
 12353  3874  3876    1
 12354 11542 11543    1
 12355 11542 11544    1
 12356 13582 13583    1
 12357 13582 13584    1
 12358 10288 10289    1
 12359 10288 10290    1
 12360  5128  5129    1
 12361  5128  5130    1
 12362  3969  3967    1
 12363 11700 11698    1
 12364 10383 10381    1
 12365  7326  7324    1
 12366   915   913    1
 12367  5286  5284    1
 12368  2106  2104    1
 12369 13740 13738    1
 12370   135   133    1
 12371 11435 11434    1
 12372  1946  1945    1
 12373  3113  3112    1
 12374  7061  7060    1
 12375  5021  5020    1
 12376 15479 15478    1
 12377  9065  9064    1
 12378 13475 13474    1
 12379   755   754    1
 12380 13420 13422    1
 12381 18421 18423    1
 12382 11380 11382    1
 12383  7006  7008    1
 12384 15439 15441    1
 12385 17254 17256    1
 12386  9025  9027    1
 12387  4966  4968    1
 12388 19582 19584    1
 12389 15601 15603    1
 12390  9187  9189    1
 12391 10330 10332    1
 12392 13672 13674    1
 12393 17395 17397    1
 12394  5218  5220    1
 12395  7258  7260    1
 12396 11632 11634    1
 12397  3916  3918    1
 12398 16663 16665    1
 12399 19678 19680    1
 12400 18562 18564    1
 12401 15517 15518    1
 12402 15517 15519    1
 12403  5101  5102    1
 12404  5101  5103    1
 12405 19630 19631    1
 12406 19630 19632    1
 12407 17335 17336    1
 12408 17335 17337    1
 12409    76    77    1
 12410    76    78    1
 12411  3133  3134    1
 12412  3133  3135    1
 12413 18502 18503    1
 12414 18502 18504    1
 12415 10279 10280    1
 12416 10279 10281    1
 12417  3865  3866    1
 12418  3865  3867    1
 12419   808   809    1
 12420   808   810    1
 12421 13555 13556    1
 12422 13555 13557    1
 12423  7141  7142    1
 12424  7141  7143    1
 12425 11515 11516    1
 12426 11515 11517    1
 12427 16642 16643    1
 12428 16642 16644    1
 12429  9103  9104    1
 12430  9103  9105    1
 12431  1999  2000    1
 12432  1999  2001    1
 12433 13447 13449    1
 12434  9040  9042    1
 12435 16609 16611    1
 12436 11407 11409    1
 12437  4993  4995    1
 12438  7033  7035    1
 12439 17275 17277    1
 12440 15454 15456    1
 12441  3799  3801    1
 12442 19594 19596    1
 12443 10213 10215    1
 12444 18442 18444    1
 12445  5106  5104    1
 12446   813   811    1
 12447  3870  3868    1
 12448  2004  2002    1
 12449    81    79    1
 12450 11520 11518    1
 12451  7146  7144    1
 12452 13560 13558    1
 12453 10284 10282    1
 12454  5284  5285    1
 12455  2104  2105    1
 12456  7324  7325    1
 12457 10381 10382    1
 12458 11698 11699    1
 12459   913   914    1
 12460  3967  3968    1
 12461 13738 13739    1
 12462   133   134    1
 12463  9064  9066    1
 12464 15478 15480    1
 12465 13474 13476    1
 12466  7060  7062    1
 12467  1945  1947    1
 12468  3112  3114    1
 12469   754   756    1
 12470 11434 11436    1
 12471  5020  5022    1
 12472 13438 13439    1
 12473 13438 13440    1
 12474  7024  7025    1
 12475  7024  7026    1
 12476 17266 17267    1
 12477 17266 17268    1
 12478 19588 19589    1
 12479 19588 19590    1
 12480 15448 15449    1
 12481 15448 15450    1
 12482  9034  9035    1
 12483  9034  9036    1
 12484 11398 11399    1
 12485 11398 11400    1
 12486  4984  4985    1
 12487  4984  4986    1
 12488 18433 18434    1
 12489 18433 18435    1
 12490 11613 11611    1
 12491  9171  9169    1
 12492   879   877    1
 12493  5199  5197    1
 12494  3183  3181    1
 12495  7239  7237    1
 12496 13653 13651    1
 12497  2070  2068    1
 12498 15585 15583    1
 12499 19627 19629    1
 12500 19627 19628    1
 12501 18499 18501    1
 12502 18499 18500    1
 12503 13549 13551    1
 12504 13549 13550    1
 12505 11509 11511    1
 12506 11509 11510    1
 12507  7135  7137    1
 12508  7135  7136    1
 12509  1993  1995    1
 12510  1993  1994    1
 12511  5095  5097    1
 12512  5095  5096    1
 12513   802   804    1
 12514   802   803    1
 12515  9097  9099    1
 12516  9097  9098    1
 12517  3127  3129    1
 12518  3127  3128    1
 12519 17332 17334    1
 12520 17332 17333    1
 12521 15511 15513    1
 12522 15511 15512    1
 12523 13586 13585    1
 12524 10292 10291    1
 12525 11546 11545    1
 12526  5132  5131    1
 12527  3878  3877    1
 12528 17351 17350    1
 12529  7172  7171    1
 12530 16649 16648    1
 12531 18518 18517    1
 12532 11518 11519    1
 12533 13558 13559    1
 12534  3868  3869    1
 12535  7144  7145    1
 12536    79    80    1
 12537  2002  2003    1
 12538  5104  5105    1
 12539   811   812    1
 12540 10282 10283    1
 12541   768   766    1
 12542  3825  3823    1
 12543  7080  7078    1
 12544 13494 13492    1
 12545    48    46    1
 12546  5040  5038    1
 12547  1959  1957    1
 12548 10239 10237    1
 12549 11454 11452    1
 12550 13460 13459    1
 12551 19601 19600    1
 12552  7046  7045    1
 12553 11420 11419    1
 12554 15467 15466    1
 12555 18449 18448    1
 12556  9053  9052    1
 12557  5006  5005    1
 12558 17282 17281    1
 12559  9169  9170    1
 12560  7237  7238    1
 12561   877   878    1
 12562 11611 11612    1
 12563 13651 13652    1
 12564 15583 15584    1
 12565  3181  3182    1
 12566  5197  5198    1
 12567  2068  2069    1
 12568 11550 11548    1
 12569 19644 19642    1
 12570  2022  2020    1
 12571  3150  3148    1
 12572  9126  9124    1
 12573 13590 13588    1
 12574 15540 15538    1
 12575 17355 17353    1
 12576  7176  7174    1
 12577   831   829    1
 12578 18522 18520    1
 12579  5136  5134    1
 12580  7305  7303    1
 12581  5265  5263    1
 12582 15615 15613    1
 12583 11679 11677    1
 12584   900   898    1
 12585 13719 13717    1
 12586  2091  2089    1
 12587  3192  3190    1
 12588  9201  9199    1
 12589  5045  5044    1
 12590  7085  7084    1
 12591 18470 18469    1
 12592 10244 10243    1
 12593 16625 16624    1
 12594 11459 11458    1
 12595 17303 17302    1
 12596 13499 13498    1
 12597  3830  3829    1
 12598  5038  5039    1
 12599  3823  3824    1
 12600 11452 11453    1
 12601  7078  7079    1
 12602  1957  1958    1
 12603   766   767    1
 12604 13492 13493    1
 12605    46    47    1
 12606 10237 10238    1
 12607 11663 11662    1
 12608 13703 13702    1
 12609  9191  9190    1
 12610 18581 18580    1
 12611 15605 15604    1
 12612 19682 19681    1
 12613  5249  5248    1
 12614 17414 17413    1
 12615  7289  7288    1
 12616 19609 19610    1
 12617 19609 19611    1
 12618 17293 17294    1
 12619 17293 17295    1
 12620  5026  5027    1
 12621  5026  5028    1
 12622 18460 18461    1
 12623 18460 18462    1
 12624  7066  7067    1
 12625  7066  7068    1
 12626 15484 15485    1
 12627 15484 15486    1
 12628  9070  9071    1
 12629  9070  9072    1
 12630 13480 13481    1
 12631 13480 13482    1
 12632 11440 11441    1
 12633 11440 11442    1
 12634  9052  9054    1
 12635  7045  7047    1
 12636 17281 17283    1
 12637 19600 19602    1
 12638 18448 18450    1
 12639  5005  5007    1
 12640 13459 13461    1
 12641 11419 11421    1
 12642 15466 15468    1
 12643 13717 13718    1
 12644  7303  7304    1
 12645 11677 11678    1
 12646  3190  3191    1
 12647  2089  2090    1
 12648   898   899    1
 12649  9199  9200    1
 12650  5263  5264    1
 12651 15613 15614    1
 12652  9059  9058    1
 12653 15473 15472    1
 12654   752   751    1
 12655  1943  1942    1
 12656 13469 13468    1
 12657  3110  3109    1
 12658 11429 11428    1
 12659  5015  5014    1
 12660  7055  7054    1
 12661 18593 18592    1
 12662  3956  3955    1
 12663  7310  7309    1
 12664 13724 13723    1
 12665   128   127    1
 12666 17426 17425    1
 12667  2096  2095    1
 12668 10370 10369    1
 12669  5270  5269    1
 12670 16688 16687    1
 12671 11684 11683    1
 12672   905   904    1
 12673  7107  7105    1
 12674  5067  5065    1
 12675 11481 11479    1
 12676  1980  1978    1
 12677  3852  3850    1
 12678 13521 13519    1
 12679 10266 10264    1
 12680    69    67    1
 12681   789   787    1
 12682  4957  4958    1
 12683  4957  4959    1
 12684  3775  3776    1
 12685  3775  3777    1
 12686 10189 10190    1
 12687 10189 10191    1
 12688 18418 18419    1
 12689 18418 18420    1
 12690  6997  6998    1
 12691  6997  6999    1
 12692 17251 17252    1
 12693 17251 17253    1
 12694 11371 11372    1
 12695 11371 11373    1
 12696 13411 13412    1
 12697 13411 13413    1
 12698 16594 16595    1
 12699 16594 16596    1
 12700 13585 13587    1
 12701  5131  5133    1
 12702  3877  3879    1
 12703 11545 11547    1
 12704 18517 18519    1
 12705  7171  7173    1
 12706 10291 10293    1
 12707 17350 17352    1
 12708 16648 16650    1
 12709  9179  9178    1
 12710  2072  2071    1
 12711  3185  3184    1
 12712  7247  7246    1
 12713 10325 10324    1
 12714  3911  3910    1
 12715   110   109    1
 12716 13661 13660    1
 12717 15593 15592    1
 12718 11621 11620    1
 12719   881   880    1
 12720  5207  5206    1
 12721 11655 11653    1
 12722  3939  3937    1
 12723  7281  7279    1
 12724 16674 16672    1
 12725 18573 18571    1
 12726 13695 13693    1
 12727 17406 17404    1
 12728  5241  5239    1
 12729 10353 10351    1
 12730 16687 16689    1
 12731  2095  2097    1
 12732 13723 13725    1
 12733 18592 18594    1
 12734   127   129    1
 12735  5269  5271    1
 12736 10369 10371    1
 12737 11683 11685    1
 12738  3955  3957    1
 12739   904   906    1
 12740  7309  7311    1
 12741 17425 17427    1
 12742 10243 10245    1
 12743 16624 16626    1
 12744 17302 17304    1
 12745 18469 18471    1
 12746 13498 13500    1
 12747 11458 11460    1
 12748  3829  3831    1
 12749  5044  5046    1
 12750  7084  7086    1
 12751  6969  6967    1
 12752  4929  4927    1
 12753 17235 17233    1
 12754 15423 15421    1
 12755 19569 19567    1
 12756 16587 16585    1
 12757  9009  9007    1
 12758 10173 10171    1
 12759  3759  3757    1
 12760 18402 18400    1
 12761 11343 11341    1
 12762 13383 13381    1
 12763  7248  7246    1
 12764  3186  3184    1
 12765 10326 10324    1
 12766   111   109    1
 12767  3912  3910    1
 12768 13662 13660    1
 12769  2073  2071    1
 12770  5208  5206    1
 12771 15594 15592    1
 12772 11622 11620    1
 12773   882   880    1
 12774  9180  9178    1
 12775  7288  7290    1
 12776  9190  9192    1
 12777 11662 11664    1
 12778 13702 13704    1
 12779  5248  5250    1
 12780 15604 15606    1
 12781 18580 18582    1
 12782 17413 17415    1
 12783 19681 19683    1
 12784 16672 16673    1
 12785 11653 11654    1
 12786 18571 18572    1
 12787 10351 10352    1
 12788  7279  7280    1
 12789  5239  5240    1
 12790  3937  3938    1
 12791 13693 13694    1
 12792 17404 17405    1
 12793  3101  3100    1
 12794 15458 15457    1
 12795    32    31    1
 12796  3803  3802    1
 12797 11411 11410    1
 12798 13451 13450    1
 12799  9044  9043    1
 12800  1934  1933    1
 12801   743   742    1
 12802  4997  4996    1
 12803  7037  7036    1
 12804 10217 10216    1
 12805 13470 13468    1
 12806  1944  1942    1
 12807  7056  7054    1
 12808 11430 11428    1
 12809   753   751    1
 12810 15474 15472    1
 12811  9060  9058    1
 12812  5016  5014    1
 12813  3111  3109    1
 12814 13519 13520    1
 12815  5065  5066    1
 12816  3950  3949    1
 12817 10364 10363    1
 12818 17423 17422    1
 12819 18590 18589    1
 12820  5261  5260    1
 12821 11675 11674    1
 12822  7105  7106    1
 12823 11479 11480    1
 12824  3850  3851    1
 12825 16685 16684    1
 12826    67    68    1
 12827  1978  1979    1
 12828 10264 10265    1
 12829 13715 13714    1
 12830   787   788    1
 12831  7301  7300    1
 12832 17243 17242    1
 12833 13400 13399    1
 12834 18410 18409    1
 12835  9020  9019    1
 12836  4946  4945    1
 12837 19577 19576    1
 12838 11360 11359    1
 12839 15434 15433    1
 12840  6986  6985    1
 12841 15422 15421    1
 12842 11342 11341    1
 12843 18401 18400    1
 12844 19568 19567    1
 12845  3758  3757    1
 12846  9008  9007    1
 12847 16586 16585    1
 12848 17234 17233    1
 12849  6968  6967    1
 12850 10172 10171    1
 12851 13382 13381    1
 12852  4928  4927    1
 12853 18589 18591    1
 12854 17422 17424    1
 12855 11674 11676    1
 12856  3949  3951    1
 12857  7300  7302    1
 12858  5260  5262    1
 12859 16684 16686    1
 12860 13714 13716    1
 12861 10363 10365    1
 12862   734   733    1
 12863  3791  3790    1
 12864  1925  1924    1
 12865 11393 11392    1
 12866 13433 13432    1
 12867 10205 10204    1
 12868  4979  4978    1
 12869    23    22    1
 12870  7019  7018    1
 12871 13401 13399    1
 12872  4947  4945    1
 12873 17244 17242    1
 12874 15435 15433    1
 12875 19578 19576    1
 12876  9021  9019    1
 12877 11361 11359    1
 12878  6987  6985    1
 12879 18411 18409    1
 12880 13594 13595    1
 12881 13594 13596    1
 12882  3883  3884    1
 12883  3883  3885    1
 12884  9127  9128    1
 12885  9127  9129    1
 12886 17356 17357    1
 12887 17356 17358    1
 12888  7180  7181    1
 12889  7180  7182    1
 12890 19645 19646    1
 12891 19645 19647    1
 12892 11554 11555    1
 12893 11554 11556    1
 12894 15541 15542    1
 12895 15541 15543    1
 12896 10297 10298    1
 12897 10297 10299    1
 12898 16651 16652    1
 12899 16651 16653    1
 12900 18523 18524    1
 12901 18523 18525    1
 12902  5140  5141    1
 12903  5140  5142    1
 12904 19673 19672    1
 12905 11624 11623    1
 12906 18554 18553    1
 12907 15596 15595    1
 12908  7250  7249    1
 12909  5210  5209    1
 12910 17387 17386    1
 12911  9182  9181    1
 12912 13664 13663    1
 12913 15497 15496    1
 12914  7121  7120    1
 12915 11495 11494    1
 12916  3122  3121    1
 12917  9083  9082    1
 12918   797   796    1
 12919  5081  5080    1
 12920  1988  1987    1
 12921 13535 13534    1
 12922 10216 10218    1
 12923  1933  1935    1
 12924 15457 15459    1
 12925  4996  4998    1
 12926  3100  3102    1
 12927  7036  7038    1
 12928  3802  3804    1
 12929    31    33    1
 12930   742   744    1
 12931 11410 11412    1
 12932 13450 13452    1
 12933  9043  9045    1
 12934  9095  9094    1
 12935  5093  5092    1
 12936 18497 18496    1
 12937 19625 19624    1
 12938 11507 11506    1
 12939 15509 15508    1
 12940 17330 17329    1
 12941  7133  7132    1
 12942 13547 13546    1
 12943   796   798    1
 12944  3121  3123    1
 12945 13534 13536    1
 12946  1987  1989    1
 12947 11494 11496    1
 12948  5080  5082    1
 12949 15496 15498    1
 12950  9082  9084    1
 12951  7120  7122    1
 12952  7251  7249    1
 12953  5211  5209    1
 12954  9183  9181    1
 12955 19674 19672    1
 12956 15597 15595    1
 12957 17388 17386    1
 12958 11625 11623    1
 12959 13665 13663    1
 12960 18555 18553    1
 12961 13728 13726    1
 12962  3960  3958    1
 12963 10374 10372    1
 12964 18597 18595    1
 12965  5274  5272    1
 12966  7314  7312    1
 12967 17430 17428    1
 12968 16692 16690    1
 12969 11688 11686    1
 12970  1926  1924    1
 12971 11394 11392    1
 12972 13434 13432    1
 12973   735   733    1
 12974  3792  3790    1
 12975    24    22    1
 12976  4980  4978    1
 12977  7020  7018    1
 12978 10206 10204    1
 12979 13679 13678    1
 12980  3923  3922    1
 12981 16667 16666    1
 12982 17399 17398    1
 12983 11639 11638    1
 12984 18566 18565    1
 12985 10337 10336    1
 12986  7265  7264    1
 12987  5225  5224    1
 12988  1971  1969    1
 12989 11472 11470    1
 12990 10257 10255    1
 12991    60    58    1
 12992 13512 13510    1
 12993   780   778    1
 12994  5058  5056    1
 12995  3843  3841    1
 12996  7098  7096    1
 12997 11609 11608    1
 12998 13649 13648    1
 12999  9167  9166    1
 13000   875   874    1
 13001  5195  5194    1
 13002  3179  3178    1
 13003  2066  2065    1
 13004 15581 15580    1
 13005  7235  7234    1
 13006  3958  3959    1
 13007 16690 16691    1
 13008 10372 10373    1
 13009  5272  5273    1
 13010  7312  7313    1
 13011 17428 17429    1
 13012 18595 18596    1
 13013 13726 13727    1
 13014 11686 11687    1
 13015 13484 13483    1
 13016    38    37    1
 13017 11444 11443    1
 13018  3815  3814    1
 13019  7070  7069    1
 13020 10229 10228    1
 13021  5030  5029    1
 13022  1949  1948    1
 13023   758   757    1
 13024 17239 17240    1
 13025 17239 17241    1
 13026 13387 13388    1
 13027 13387 13389    1
 13028  6973  6974    1
 13029  6973  6975    1
 13030 11347 11348    1
 13031 11347 11349    1
 13032 15427 15428    1
 13033 15427 15429    1
 13034 18406 18407    1
 13035 18406 18408    1
 13036 19573 19574    1
 13037 19573 19575    1
 13038  9013  9014    1
 13039  9013  9015    1
 13040  4933  4934    1
 13041  4933  4935    1
 13042   874   876    1
 13043  3178  3180    1
 13044  9166  9168    1
 13045  7234  7236    1
 13046  2065  2067    1
 13047 15580 15582    1
 13048  5194  5196    1
 13049 11608 11610    1
 13050 13648 13650    1
 13051  9094  9096    1
 13052  5092  5094    1
 13053 17329 17331    1
 13054 15508 15510    1
 13055 13546 13548    1
 13056  7132  7134    1
 13057 18496 18498    1
 13058 19624 19626    1
 13059 11506 11508    1
 13060  5056  5057    1
 13061  7096  7097    1
 13062 13510 13511    1
 13063  3841  3842    1
 13064  1969  1970    1
 13065 10255 10256    1
 13066    58    59    1
 13067   778   779    1
 13068 11470 11471    1
 13069   757   759    1
 13070 11443 11445    1
 13071    37    39    1
 13072 13483 13485    1
 13073  3814  3816    1
 13074  5029  5031    1
 13075  7069  7071    1
 13076 10228 10230    1
 13077  1948  1950    1
 13078 16628 16627    1
 13079 13508 13507    1
 13080  1967  1966    1
 13081 11468 11467    1
 13082  5054  5053    1
 13083 10253 10252    1
 13084  3839  3838    1
 13085 17306 17305    1
 13086    56    55    1
 13087 18473 18472    1
 13088  7094  7093    1
 13089   776   775    1
 13090  5258  5257    1
 13091 17420 17419    1
 13092 10361 10360    1
 13093 18587 18586    1
 13094  7298  7297    1
 13095 16682 16681    1
 13096 13712 13711    1
 13097 11672 11671    1
 13098  3947  3946    1
 13099 11638 11640    1
 13100 18565 18567    1
 13101  5224  5226    1
 13102  7264  7266    1
 13103 16666 16668    1
 13104  3922  3924    1
 13105 17398 17400    1
 13106 10336 10338    1
 13107 13678 13680    1
 13108  9138  9136    1
 13109 11568 11566    1
 13110 15552 15550    1
 13111  2034  2032    1
 13112  5154  5152    1
 13113  7194  7192    1
 13114 13608 13606    1
 13115   843   841    1
 13116  3156  3154    1
 13117 11367 11365    1
 13118 16593 16591    1
 13119 17250 17248    1
 13120  3771  3769    1
 13121  6993  6991    1
 13122 10185 10183    1
 13123 18417 18415    1
 13124    12    10    1
 13125   720   718    1
 13126  1911  1909    1
 13127 13407 13405    1
 13128  4953  4951    1
 13129 18528 18526    1
 13130 15549 15547    1
 13131 11565 11563    1
 13132 13605 13603    1
 13133 17361 17359    1
 13134  9135  9133    1
 13135  7191  7189    1
 13136  5151  5149    1
 13137 19650 19648    1
 13138  2032  2033    1
 13139 11566 11567    1
 13140 15550 15551    1
 13141  5152  5153    1
 13142  9136  9137    1
 13143   841   842    1
 13144  3154  3155    1
 13145  7192  7193    1
 13146 13606 13607    1
 13147 18426 18424    1
 13148 11385 11383    1
 13149 10200 10198    1
 13150  7011  7009    1
 13151 16599 16597    1
 13152 13425 13423    1
 13153  3786  3784    1
 13154  4971  4969    1
 13155 17259 17257    1
 13156   769   771    1
 13157   769   770    1
 13158  3832  3834    1
 13159  3832  3833    1
 13160 10246 10248    1
 13161 10246 10247    1
 13162 13501 13503    1
 13163 13501 13502    1
 13164  5047  5049    1
 13165  5047  5048    1
 13166  1960  1962    1
 13167  1960  1961    1
 13168    49    51    1
 13169    49    50    1
 13170  7087  7089    1
 13171  7087  7088    1
 13172 11461 11463    1
 13173 11461 11462    1
 13174 15461 15460    1
 13175   746   745    1
 13176 11414 11413    1
 13177  5000  4999    1
 13178  3104  3103    1
 13179  7040  7039    1
 13180  9047  9046    1
 13181 13454 13453    1
 13182  1937  1936    1
 13183  3768  3766    1
 13184 11358 11356    1
 13185  1905  1903    1
 13186     9     7    1
 13187 13398 13396    1
 13188 10182 10180    1
 13189  6984  6982    1
 13190  4944  4942    1
 13191   714   712    1
 13192 19614 19612    1
 13193 13527 13525    1
 13194 11487 11485    1
 13195 18480 18478    1
 13196 17313 17311    1
 13197  9081  9079    1
 13198  7113  7111    1
 13199 15495 15493    1
 13200  5073  5071    1
 13201 18526 18527    1
 13202 11563 11564    1
 13203 15547 15548    1
 13204  7189  7190    1
 13205  9133  9134    1
 13206 19648 19649    1
 13207  5149  5150    1
 13208 17359 17360    1
 13209 13603 13604    1
 13210  6972  6970    1
 13211 13386 13384    1
 13212  3762  3760    1
 13213 15426 15424    1
 13214  4932  4930    1
 13215 10176 10174    1
 13216  3087  3085    1
 13217 19572 19570    1
 13218 18405 18403    1
 13219  9012  9010    1
 13220 16590 16588    1
 13221  1896  1894    1
 13222     3     1    1
 13223 17238 17236    1
 13224 11346 11344    1
 13225   705   703    1
 13226  6989  6988    1
 13227 18413 18412    1
 13228  3092  3091    1
 13229  1907  1906    1
 13230   716   715    1
 13231 19580 19579    1
 13232  9023  9022    1
 13233 13403 13402    1
 13234 17246 17245    1
 13235 11363 11362    1
 13236 15437 15436    1
 13237  4949  4948    1
 13238  3783  3781    1
 13239 11379 11377    1
 13240 10197 10195    1
 13241    21    19    1
 13242  4965  4963    1
 13243  7005  7003    1
 13244   729   727    1
 13245 13419 13417    1
 13246  1920  1918    1
 13247  1966  1968    1
 13248 18472 18474    1
 13249  3838  3840    1
 13250 10252 10254    1
 13251 11467 11469    1
 13252    55    57    1
 13253 13507 13509    1
 13254  5053  5055    1
 13255 16627 16629    1
 13256 17305 17307    1
 13257   775   777    1
 13258  7093  7095    1
 13259 18586 18588    1
 13260  7297  7299    1
 13261 11671 11673    1
 13262  5257  5259    1
 13263 10360 10362    1
 13264 13711 13713    1
 13265  3946  3948    1
 13266 17419 17421    1
 13267 16681 16683    1
 13268  2087  2086    1
 13269  9197  9196    1
 13270 15611 15610    1
 13271  5255  5254    1
 13272  3188  3187    1
 13273 11669 11668    1
 13274 13709 13708    1
 13275  7295  7294    1
 13276   896   895    1
 13277 16597 16598    1
 13278  3784  3785    1
 13279 10198 10199    1
 13280 17257 17258    1
 13281  7009  7010    1
 13282 18424 18425    1
 13283 11383 11384    1
 13284  4969  4970    1
 13285 13423 13424    1
 13286  7112  7111    1
 13287  9080  9079    1
 13288 19613 19612    1
 13289  5072  5071    1
 13290 11486 11485    1
 13291 15494 15493    1
 13292 13526 13525    1
 13293 18479 18478    1
 13294 17312 17311    1
 13295  1894  1895    1
 13296 13384 13385    1
 13297 18403 18404    1
 13298  9010  9011    1
 13299  3760  3761    1
 13300 10174 10175    1
 13301 11344 11345    1
 13302 17236 17237    1
 13303   703   704    1
 13304  4930  4931    1
 13305  3085  3086    1
 13306  6970  6971    1
 13307 19570 19571    1
 13308     1     2    1
 13309 15424 15425    1
 13310 16588 16589    1
 13311 19579 19581    1
 13312  1906  1908    1
 13313  4948  4950    1
 13314  6988  6990    1
 13315 18412 18414    1
 13316  3091  3093    1
 13317 11362 11364    1
 13318 15436 15438    1
 13319 17245 17247    1
 13320   715   717    1
 13321  9022  9024    1
 13322 13402 13404    1
 13323  4963  4964    1
 13324   727   728    1
 13325    19    20    1
 13326 13417 13418    1
 13327 11377 11378    1
 13328 10195 10196    1
 13329  1918  1919    1
 13330  7003  7004    1
 13331  3781  3782    1
 13332 11396 11395    1
 13333 17264 17263    1
 13334  7022  7021    1
 13335 19586 19585    1
 13336 18431 18430    1
 13337  4982  4981    1
 13338 15446 15445    1
 13339 13436 13435    1
 13340  9032  9031    1
 13341  6992  6991    1
 13342 18416 18415    1
 13343 17249 17248    1
 13344 11366 11365    1
 13345 10184 10183    1
 13346    11    10    1
 13347 13406 13405    1
 13348 16592 16591    1
 13349  1910  1909    1
 13350  3770  3769    1
 13351   719   718    1
 13352  4952  4951    1
 13353  3105  3103    1
 13354 11415 11413    1
 13355  1938  1936    1
 13356  7041  7039    1
 13357   747   745    1
 13358  5001  4999    1
 13359 15462 15460    1
 13360 13455 13453    1
 13361  9048  9046    1
 13362  5237  5236    1
 13363   122   121    1
 13364   893   892    1
 13365  7277  7276    1
 13366 11651 11650    1
 13367  2084  2083    1
 13368 13691 13690    1
 13369 10349 10348    1
 13370  3935  3934    1
 13371  7077  7075    1
 13372 10236 10234    1
 13373  1956  1954    1
 13374 11451 11449    1
 13375  5037  5035    1
 13376  3822  3820    1
 13377    45    43    1
 13378   765   763    1
 13379 13491 13489    1
 13380 11389 11390    1
 13381 11389 11391    1
 13382  3787  3788    1
 13383  3787  3789    1
 13384  7015  7016    1
 13385  7015  7017    1
 13386 10201 10202    1
 13387 10201 10203    1
 13388 13429 13430    1
 13389 13429 13431    1
 13390 18427 18428    1
 13391 18427 18429    1
 13392  4975  4976    1
 13393  4975  4977    1
 13394 17260 17261    1
 13395 17260 17262    1
 13396 16600 16601    1
 13397 16600 16602    1
 13398 11668 11670    1
 13399   895   897    1
 13400  3187  3189    1
 13401 13708 13710    1
 13402  5254  5256    1
 13403  9196  9198    1
 13404  7294  7296    1
 13405 15610 15612    1
 13406  2086  2088    1
 13407  1903  1904    1
 13408 13397 13396    1
 13409 10180 10181    1
 13410  3767  3766    1
 13411  6983  6982    1
 13412   713   712    1
 13413 11357 11356    1
 13414  4943  4942    1
 13415     8     7    1
 13416  3934  3936    1
 13417   892   894    1
 13418 10348 10350    1
 13419  7276  7278    1
 13420   121   123    1
 13421 13690 13692    1
 13422  2083  2085    1
 13423  5236  5238    1
 13424 11650 11652    1
 13425    44    43    1
 13426  1955  1954    1
 13427 13490 13489    1
 13428  7076  7075    1
 13429  3821  3820    1
 13430 11450 11449    1
 13431 10235 10234    1
 13432  5036  5035    1
 13433   764   763    1
 13434  7023  7021    1
 13435 17265 17263    1
 13436 11397 11395    1
 13437 13437 13435    1
 13438 19587 19585    1
 13439 15447 15445    1
 13440  9033  9031    1
 13441 18432 18430    1
 13442  4983  4981    1
 13443  6978  6976    1
 13444 11352 11350    1
 13445 13392 13390    1
 13446  4938  4936    1
 13447   708   706    1
 13448  1899  1897    1
 13449  3090  3088    1
 13450 15432 15430    1
 13451  9018  9016    1
 13452 11351 11350    1
 13453  3089  3088    1
 13454  9017  9016    1
 13455 15431 15430    1
 13456 13391 13390    1
 13457  1898  1897    1
 13458  4937  4936    1
 13459   707   706    1
 13460  6977  6976    1
 13461  9194  9193    1
 13462 17417 17416    1
 13463  5252  5251    1
 13464  7292  7291    1
 13465 13706 13705    1
 13466 11666 11665    1
 13467 18584 18583    1
 13468 19685 19684    1
 13469 15608 15607    1
 13470 13414 13416    1
 13471 13414 13415    1
 13472  1915  1917    1
 13473  1915  1916    1
 13474 11374 11376    1
 13475 11374 11375    1
 13476    16    18    1
 13477    16    17    1
 13478 10192 10194    1
 13479 10192 10193    1
 13480   724   726    1
 13481   724   725    1
 13482  3778  3780    1
 13483  3778  3779    1
 13484  4960  4962    1
 13485  4960  4961    1
 13486  7000  7002    1
 13487  7000  7001    1
 13488 18585 18583    1
 13489  9195  9193    1
 13490 15609 15607    1
 13491  5253  5251    1
 13492 13707 13705    1
 13493 17418 17416    1
 13494 19686 19684    1
 13495 11667 11665    1
 13496  7293  7291    1
